/ansys_inc/v252/fluent/fluent25.2.0/bin/fluent -r25.2.0 3ddp -py -t4 -gu -driver null -meshing -sifile=/tmp/serverinfo-4egyu557.txt -nm
/ansys_inc/v252/fluent/fluent25.2.0/cortex/lnamd64/cortex.25.2.0 -f fluent -py -gu -meshing -sifile=/tmp/serverinfo-4egyu557.txt -nm (fluent "3ddp -peth  -host -r25.2.0 -t4 -mpi=intel -path/ansys_inc/v252/fluent -ssh")

Opening input/output transcript to file "/home/aoki/Downloads/pintle_injector/fluent-20260305-084549-1619074.trn".
Auto-Transcript Start Time:  08:45:49, 05 Mar 2026 
/ansys_inc/v252/fluent/fluent25.2.0/bin/fluent -r25.2.0 3ddp -peth -host -t4 -mpi=intel -path/ansys_inc/v252/fluent -ssh -cx localhost:34991:34749
Starting /ansys_inc/v252/fluent/fluent25.2.0/lnamd64/3ddp_host/fluent.25.2.0 host -cx localhost:34991:34749 "(list (rpsetvar (QUOTE parallel/function) "fluent 3ddp -flux -node -r25.2.0 -t4 -peth -mpi=intel -ssh") (rpsetvar (QUOTE parallel/rhost) "") (rpsetvar (QUOTE parallel/ruser) "") (rpsetvar (QUOTE parallel/nprocs_string) "4") (rpsetvar (QUOTE parallel/auto-spawn?) #t) (rpsetvar (QUOTE parallel/trace-level) 0) (rpsetvar (QUOTE parallel/remote-shell) 1) (rpsetvar (QUOTE parallel/path) "/ansys_inc/v252/fluent") (rpsetvar (QUOTE parallel/hostsfile) "") (rpsetvar (QUOTE gpuapp/devices) ""))"

              Welcome to ANSYS Fluent 25.2.0

              Copyright 1987-2025 ANSYS, Inc. All Rights Reserved.
              Unauthorized use, distribution or duplication is prohibited.
              This product is subject to U.S. laws governing export and re-export.
              For full Legal Notice, see documentation.

Build Time: Jun 16 2025 09:42:18 EDT  Build Id: 10204  
 
Information: The server has started and is running.
Connected License Server List:	<Shared_Web_License_Server>

Unexpected license problem; exiting.

Hit return to exit.
/ansys_inc/v252/fluent/fluent25.2.0/bin/fluent -r25.2.0 3ddp -py -t4 -gu -driver null -meshing -sifile=/tmp/serverinfo-a3x3jzdd.txt -nm
/ansys_inc/v252/fluent/fluent25.2.0/cortex/lnamd64/cortex.25.2.0 -f fluent -py -gu -meshing -sifile=/tmp/serverinfo-a3x3jzdd.txt -nm (fluent "3ddp -peth  -host -r25.2.0 -t4 -mpi=intel -path/ansys_inc/v252/fluent -ssh")

Opening input/output transcript to file "/home/aoki/Downloads/pintle_injector/fluent-20260305-084638-1620023.trn".
Auto-Transcript Start Time:  08:46:38, 05 Mar 2026 
/ansys_inc/v252/fluent/fluent25.2.0/bin/fluent -r25.2.0 3ddp -peth -host -t4 -mpi=intel -path/ansys_inc/v252/fluent -ssh -cx localhost:35787:41707
Starting /ansys_inc/v252/fluent/fluent25.2.0/lnamd64/3ddp_host/fluent.25.2.0 host -cx localhost:35787:41707 "(list (rpsetvar (QUOTE parallel/function) "fluent 3ddp -flux -node -r25.2.0 -t4 -peth -mpi=intel -ssh") (rpsetvar (QUOTE parallel/rhost) "") (rpsetvar (QUOTE parallel/ruser) "") (rpsetvar (QUOTE parallel/nprocs_string) "4") (rpsetvar (QUOTE parallel/auto-spawn?) #t) (rpsetvar (QUOTE parallel/trace-level) 0) (rpsetvar (QUOTE parallel/remote-shell) 1) (rpsetvar (QUOTE parallel/path) "/ansys_inc/v252/fluent") (rpsetvar (QUOTE parallel/hostsfile) "") (rpsetvar (QUOTE gpuapp/devices) ""))"

              Welcome to ANSYS Fluent 25.2.0

              Copyright 1987-2025 ANSYS, Inc. All Rights Reserved.
              Unauthorized use, distribution or duplication is prohibited.
              This product is subject to U.S. laws governing export and re-export.
              For full Legal Notice, see documentation.

Build Time: Jun 16 2025 09:42:18 EDT  Build Id: 10204  
 
Connected License Server List:	1055@localhost

     --------------------------------------------------------------
     This is an academic version of ANSYS FLUENT. Usage of this product
     license is limited to the terms and conditions specified in your ANSYS
     license form, additional terms section.
     --------------------------------------------------------------
Host spawning Node 0 on machine "localhost.localdomain" (unix).

999999: mpt_get_dot_address: warning: localhost.localdomain -> 127.0.0.1. Check your system network configuration!
999999: mpt_get_dot_address: warning: localhost.localdomain -> 127.0.0.1. Check your system network configuration!/ansys_inc/v252/fluent/fluent25.2.0/bin/fluent -r25.2.0 3ddp -flux -node -t4 -peth -mpi=intel -ssh -meshing -mport 127.0.0.1:127.0.0.1:41757:0
Starting /ansys_inc/v252/fluent/fluent25.2.0/multiport/mpi/lnamd64/intel/bin/mpirun -f /tmp/fluent-appfile.aoki.1620589 -genv I_MPI_OFI_PROVIDER tcp -genv FLUENT_ARCH lnamd64 -genv I_MPI_DEBUG 0 -genv I_MPI_ADJUST_GATHERV 3 -genv I_MPI_ADJUST_ALLREDUCE 2 -genv I_MPI_PLATFORM auto -genv PYTHONHOME /ansys_inc/v252/fluent/fluent25.2.0/../../commonfiles/CPython/3_10/linx64/Release/python -genv FLUENT_PROD_DIR /ansys_inc/v252/fluent/fluent25.2.0 -genv FLUENT_AFFINITY 0 -genv I_MPI_PIN enable -genv KMP_AFFINITY disabled -n 4 /ansys_inc/v252/fluent/fluent25.2.0/lnamd64/3ddp_node/fluent_mpi.25.2.0 node -mpiw intel -pic ethernet -mport 127.0.0.1:127.0.0.1:41757:0 -meshing

0: mpt_get_dot_address: warning: localhost.localdomain -> 127.0.0.1. Check your system network configuration!
2: mpt_get_dot_address: warning: localhost.localdomain -> 127.0.0.1. Check your system network configuration!
3: mpt_get_dot_address: warning: localhost.localdomain -> 127.0.0.1. Check your system network configuration!
1: mpt_get_dot_address: warning: localhost.localdomain -> 127.0.0.1. Check your system network configuration!
-------------------------------------------------------------------------------------
ID    Hostname              Core   O.S.      PID              Vendor                
-------------------------------------------------------------------------------------
n0-3  localhost.localdomai  4/128  Linux-64  1620659-1620662  AMD EPYC 9354 32-Core 
host  localhost.localdomai         Linux-64  1620226          AMD EPYC 9354 32-Core 

MPI Option Selected: intel
Selected system interconnect: ethernet
-------------------------------------------------------------------------------------


999999: mpt_get_dot_address: warning: localhost.localdomain -> 127.0.0.1. Check your system network configuration!
0: mpt_get_dot_address: warning: localhost.localdomain -> 127.0.0.1. Check your system network configuration!
1: mpt_get_dot_address: warning: localhost.localdomain -> 127.0.0.1. Check your system network configuration!
2: mpt_get_dot_address: warning: localhost.localdomain -> 127.0.0.1. Check your system network configuration!
3: mpt_get_dot_address: warning: localhost.localdomain -> 127.0.0.1. Check your system network configuration!Cleanup script file is /home/aoki/Downloads/pintle_injector/cleanup-fluent-localhost.localdomain-1620226.sh

Graphics driver currently in use: null

Posting ANSYS Product Improvement Program startup data
Done.
Information: The server has started and is running.
>>> 

ERROR: Invalid string.
Error object: 23.1




Error: %string-split: wta[1](string)
Error Object: #f

Posting ANSYS Product Improvement Program performance data 
Done.
Shutting down Server...
Services Shutdown...Done.
Server Shutdown...Done.
Queue Cleared...Done.
Shutdown Complete.
Auto-Transcript Stop Time:  08:46:52, 05 Mar 2026 
Total Transcript Time: 0 Minute 13 Second.

Automatic transcript closed.
/ansys_inc/v252/fluent/fluent25.2.0/bin/fluent -r25.2.0 3ddp -py -t4 -gu -driver null -meshing -sifile=/tmp/serverinfo-g4e7sm1o.txt -nm
/ansys_inc/v252/fluent/fluent25.2.0/cortex/lnamd64/cortex.25.2.0 -f fluent -py -gu -meshing -sifile=/tmp/serverinfo-g4e7sm1o.txt -nm (fluent "3ddp -peth  -host -r25.2.0 -t4 -mpi=intel -path/ansys_inc/v252/fluent -ssh")

Opening input/output transcript to file "/home/aoki/Downloads/pintle_injector/fluent-20260305-085157-1625597.trn".
Auto-Transcript Start Time:  08:51:57, 05 Mar 2026 
/ansys_inc/v252/fluent/fluent25.2.0/bin/fluent -r25.2.0 3ddp -peth -host -t4 -mpi=intel -path/ansys_inc/v252/fluent -ssh -cx localhost:41453:43087
Starting /ansys_inc/v252/fluent/fluent25.2.0/lnamd64/3ddp_host/fluent.25.2.0 host -cx localhost:41453:43087 "(list (rpsetvar (QUOTE parallel/function) "fluent 3ddp -flux -node -r25.2.0 -t4 -peth -mpi=intel -ssh") (rpsetvar (QUOTE parallel/rhost) "") (rpsetvar (QUOTE parallel/ruser) "") (rpsetvar (QUOTE parallel/nprocs_string) "4") (rpsetvar (QUOTE parallel/auto-spawn?) #t) (rpsetvar (QUOTE parallel/trace-level) 0) (rpsetvar (QUOTE parallel/remote-shell) 1) (rpsetvar (QUOTE parallel/path) "/ansys_inc/v252/fluent") (rpsetvar (QUOTE parallel/hostsfile) "") (rpsetvar (QUOTE gpuapp/devices) ""))"

              Welcome to ANSYS Fluent 25.2.0

              Copyright 1987-2025 ANSYS, Inc. All Rights Reserved.
              Unauthorized use, distribution or duplication is prohibited.
              This product is subject to U.S. laws governing export and re-export.
              For full Legal Notice, see documentation.

Build Time: Jun 16 2025 09:42:18 EDT  Build Id: 10204  
 
Connected License Server List:	1055@localhost

     --------------------------------------------------------------
     This is an academic version of ANSYS FLUENT. Usage of this product
     license is limited to the terms and conditions specified in your ANSYS
     license form, additional terms section.
     --------------------------------------------------------------
Host spawning Node 0 on machine "localhost.localdomain" (unix).

999999: mpt_get_dot_address: warning: localhost.localdomain -> 127.0.0.1. Check your system network configuration!
999999: mpt_get_dot_address: warning: localhost.localdomain -> 127.0.0.1. Check your system network configuration!/ansys_inc/v252/fluent/fluent25.2.0/bin/fluent -r25.2.0 3ddp -flux -node -t4 -peth -mpi=intel -ssh -meshing -mport 127.0.0.1:127.0.0.1:46705:0
Starting /ansys_inc/v252/fluent/fluent25.2.0/multiport/mpi/lnamd64/intel/bin/mpirun -f /tmp/fluent-appfile.aoki.1626188 -genv I_MPI_OFI_PROVIDER tcp -genv FLUENT_ARCH lnamd64 -genv I_MPI_DEBUG 0 -genv I_MPI_ADJUST_GATHERV 3 -genv I_MPI_ADJUST_ALLREDUCE 2 -genv I_MPI_PLATFORM auto -genv PYTHONHOME /ansys_inc/v252/fluent/fluent25.2.0/../../commonfiles/CPython/3_10/linx64/Release/python -genv FLUENT_PROD_DIR /ansys_inc/v252/fluent/fluent25.2.0 -genv FLUENT_AFFINITY 0 -genv I_MPI_PIN enable -genv KMP_AFFINITY disabled -n 4 /ansys_inc/v252/fluent/fluent25.2.0/lnamd64/3ddp_node/fluent_mpi.25.2.0 node -mpiw intel -pic ethernet -mport 127.0.0.1:127.0.0.1:46705:0 -meshing

0: mpt_get_dot_address: warning: localhost.localdomain -> 127.0.0.1. Check your system network configuration!
1: mpt_get_dot_address: warning: localhost.localdomain -> 127.0.0.1. Check your system network configuration!
2: mpt_get_dot_address: warning: localhost.localdomain -> 127.0.0.1. Check your system network configuration!
3: mpt_get_dot_address: warning: localhost.localdomain -> 127.0.0.1. Check your system network configuration!
-------------------------------------------------------------------------------------
ID    Hostname              Core   O.S.      PID              Vendor                
-------------------------------------------------------------------------------------
n0-3  localhost.localdomai  4/128  Linux-64  1626258-1626261  AMD EPYC 9354 32-Core 
host  localhost.localdomai         Linux-64  1625806          AMD EPYC 9354 32-Core 

MPI Option Selected: intel
Selected system interconnect: ethernet
-------------------------------------------------------------------------------------


999999: mpt_get_dot_address: warning: localhost.localdomain -> 127.0.0.1. Check your system network configuration!
0: mpt_get_dot_address: warning: localhost.localdomain -> 127.0.0.1. Check your system network configuration!
1: mpt_get_dot_address: warning: localhost.localdomain -> 127.0.0.1. Check your system network configuration!
2: mpt_get_dot_address: warning: localhost.localdomain -> 127.0.0.1. Check your system network configuration!
3: mpt_get_dot_address: warning: localhost.localdomain -> 127.0.0.1. Check your system network configuration!Cleanup script file is /home/aoki/Downloads/pintle_injector/cleanup-fluent-localhost.localdomain-1625806.sh

Graphics driver currently in use: null

Posting ANSYS Product Improvement Program startup data
Done.
Information: The server has started and is running.
>>> 

ERROR: Invalid string.
Error object: 23.1




Error: %string-split: wta[1](string)
Error Object: #f

Posting ANSYS Product Improvement Program performance data 
Done.
Shutting down Server...
Services Shutdown...Done.
Server Shutdown...Done.
Queue Cleared...Done.
Shutdown Complete.
Auto-Transcript Stop Time:  08:52:11, 05 Mar 2026 
Total Transcript Time: 0 Minute 13 Second.

Automatic transcript closed.
/ansys_inc/v252/fluent/fluent25.2.0/bin/fluent -r25.2.0 3ddp -py -t4 -gu -driver null -meshing -sifile=/tmp/serverinfo-fdj8sutq.txt -nm
/ansys_inc/v252/fluent/fluent25.2.0/cortex/lnamd64/cortex.25.2.0 -f fluent -py -gu -meshing -sifile=/tmp/serverinfo-fdj8sutq.txt -nm (fluent "3ddp -peth  -host -r25.2.0 -t4 -mpi=intel -path/ansys_inc/v252/fluent -ssh")

Opening input/output transcript to file "/home/aoki/Downloads/pintle_injector/fluent-20260305-085428-1628617.trn".
Auto-Transcript Start Time:  08:54:28, 05 Mar 2026 
/ansys_inc/v252/fluent/fluent25.2.0/bin/fluent -r25.2.0 3ddp -peth -host -t4 -mpi=intel -path/ansys_inc/v252/fluent -ssh -cx localhost:36629:42319
Starting /ansys_inc/v252/fluent/fluent25.2.0/lnamd64/3ddp_host/fluent.25.2.0 host -cx localhost:36629:42319 "(list (rpsetvar (QUOTE parallel/function) "fluent 3ddp -flux -node -r25.2.0 -t4 -peth -mpi=intel -ssh") (rpsetvar (QUOTE parallel/rhost) "") (rpsetvar (QUOTE parallel/ruser) "") (rpsetvar (QUOTE parallel/nprocs_string) "4") (rpsetvar (QUOTE parallel/auto-spawn?) #t) (rpsetvar (QUOTE parallel/trace-level) 0) (rpsetvar (QUOTE parallel/remote-shell) 1) (rpsetvar (QUOTE parallel/path) "/ansys_inc/v252/fluent") (rpsetvar (QUOTE parallel/hostsfile) "") (rpsetvar (QUOTE gpuapp/devices) ""))"

              Welcome to ANSYS Fluent 25.2.0

              Copyright 1987-2025 ANSYS, Inc. All Rights Reserved.
              Unauthorized use, distribution or duplication is prohibited.
              This product is subject to U.S. laws governing export and re-export.
              For full Legal Notice, see documentation.

Build Time: Jun 16 2025 09:42:18 EDT  Build Id: 10204  
 
Connected License Server List:	1055@localhost

     --------------------------------------------------------------
     This is an academic version of ANSYS FLUENT. Usage of this product
     license is limited to the terms and conditions specified in your ANSYS
     license form, additional terms section.
     --------------------------------------------------------------
Host spawning Node 0 on machine "localhost.localdomain" (unix).

999999: mpt_get_dot_address: warning: localhost.localdomain -> 127.0.0.1. Check your system network configuration!
999999: mpt_get_dot_address: warning: localhost.localdomain -> 127.0.0.1. Check your system network configuration!/ansys_inc/v252/fluent/fluent25.2.0/bin/fluent -r25.2.0 3ddp -flux -node -t4 -peth -mpi=intel -ssh -meshing -mport 127.0.0.1:127.0.0.1:46481:0
Starting /ansys_inc/v252/fluent/fluent25.2.0/multiport/mpi/lnamd64/intel/bin/mpirun -f /tmp/fluent-appfile.aoki.1629202 -genv I_MPI_OFI_PROVIDER tcp -genv FLUENT_ARCH lnamd64 -genv I_MPI_DEBUG 0 -genv I_MPI_ADJUST_GATHERV 3 -genv I_MPI_ADJUST_ALLREDUCE 2 -genv I_MPI_PLATFORM auto -genv PYTHONHOME /ansys_inc/v252/fluent/fluent25.2.0/../../commonfiles/CPython/3_10/linx64/Release/python -genv FLUENT_PROD_DIR /ansys_inc/v252/fluent/fluent25.2.0 -genv FLUENT_AFFINITY 0 -genv I_MPI_PIN enable -genv KMP_AFFINITY disabled -n 4 /ansys_inc/v252/fluent/fluent25.2.0/lnamd64/3ddp_node/fluent_mpi.25.2.0 node -mpiw intel -pic ethernet -mport 127.0.0.1:127.0.0.1:46481:0 -meshing

0: mpt_get_dot_address: warning: localhost.localdomain -> 127.0.0.1. Check your system network configuration!
1: mpt_get_dot_address: warning: localhost.localdomain -> 127.0.0.1. Check your system network configuration!
2: mpt_get_dot_address: warning: localhost.localdomain -> 127.0.0.1. Check your system network configuration!
3: mpt_get_dot_address: warning: localhost.localdomain -> 127.0.0.1. Check your system network configuration!
-------------------------------------------------------------------------------------
ID    Hostname              Core   O.S.      PID              Vendor                
-------------------------------------------------------------------------------------
n0-3  localhost.localdomai  4/128  Linux-64  1629272-1629275  AMD EPYC 9354 32-Core 
host  localhost.localdomai         Linux-64  1628824          AMD EPYC 9354 32-Core 

MPI Option Selected: intel
Selected system interconnect: ethernet
-------------------------------------------------------------------------------------


999999: mpt_get_dot_address: warning: localhost.localdomain -> 127.0.0.1. Check your system network configuration!
0: mpt_get_dot_address: warning: localhost.localdomain -> 127.0.0.1. Check your system network configuration!
1: mpt_get_dot_address: warning: localhost.localdomain -> 127.0.0.1. Check your system network configuration!
2: mpt_get_dot_address: warning: localhost.localdomain -> 127.0.0.1. Check your system network configuration!
3: mpt_get_dot_address: warning: localhost.localdomain -> 127.0.0.1. Check your system network configuration!Cleanup script file is /home/aoki/Downloads/pintle_injector/cleanup-fluent-localhost.localdomain-1628824.sh

Graphics driver currently in use: null

Posting ANSYS Product Improvement Program startup data
Done.
Information: The server has started and is running.
>>> 
Posting ANSYS Product Improvement Program performance data 
Done.
Shutting down Server...
Services Shutdown...Done.
Server Shutdown...Done.
Queue Cleared...Done.
Shutdown Complete.
Auto-Transcript Stop Time:  08:54:42, 05 Mar 2026 
Total Transcript Time: 0 Minute 13 Second.

Automatic transcript closed.
/ansys_inc/v252/fluent/fluent25.2.0/bin/fluent -r25.2.0 3ddp -py -t4 -gu -driver null -meshing -sifile=/tmp/serverinfo-g00r09w3.txt -nm
Warning:  DISPLAY environment variable is not set.
  Graphics and GUI will not operate correctly
  without this being set properly.
/ansys_inc/v252/fluent/fluent25.2.0/cortex/lnamd64/cortex.25.2.0 -f fluent -py -gu -meshing -sifile=/tmp/serverinfo-g00r09w3.txt -nm (fluent "3ddp -peth  -host -r25.2.0 -t4 -mpi=intel -path/ansys_inc/v252/fluent -ssh")

Opening input/output transcript to file "/home/aoki/Downloads/pintle_injector/fluent-20260323-121315-315037.trn".
Auto-Transcript Start Time:  12:13:15, 23 Mar 2026 
/ansys_inc/v252/fluent/fluent25.2.0/bin/fluent -r25.2.0 3ddp -peth -host -t4 -mpi=intel -path/ansys_inc/v252/fluent -ssh -cx localhost:36607:45251
Warning:  DISPLAY environment variable is not set.
  Graphics and GUI will not operate correctly
  without this being set properly.
Starting /ansys_inc/v252/fluent/fluent25.2.0/lnamd64/3ddp_host/fluent.25.2.0 host -cx localhost:36607:45251 "(list (rpsetvar (QUOTE parallel/function) "fluent 3ddp -flux -node -r25.2.0 -t4 -peth -mpi=intel -ssh") (rpsetvar (QUOTE parallel/rhost) "") (rpsetvar (QUOTE parallel/ruser) "") (rpsetvar (QUOTE parallel/nprocs_string) "4") (rpsetvar (QUOTE parallel/auto-spawn?) #t) (rpsetvar (QUOTE parallel/trace-level) 0) (rpsetvar (QUOTE parallel/remote-shell) 1) (rpsetvar (QUOTE parallel/path) "/ansys_inc/v252/fluent") (rpsetvar (QUOTE parallel/hostsfile) "") (rpsetvar (QUOTE gpuapp/devices) ""))"

              Welcome to ANSYS Fluent 25.2.0

              Copyright 1987-2025 ANSYS, Inc. All Rights Reserved.
              Unauthorized use, distribution or duplication is prohibited.
              This product is subject to U.S. laws governing export and re-export.
              For full Legal Notice, see documentation.

Build Time: Jun 16 2025 09:42:18 EDT  Build Id: 10204  
 
Connected License Server List:	1055@localhost

     --------------------------------------------------------------
     This is an academic version of ANSYS FLUENT. Usage of this product
     license is limited to the terms and conditions specified in your ANSYS
     license form, additional terms section.
     --------------------------------------------------------------
Host spawning Node 0 on machine "localhost.localdomain" (unix).

999999: mpt_get_dot_address: warning: localhost.localdomain -> 127.0.0.1. Check your system network configuration!
999999: mpt_get_dot_address: warning: localhost.localdomain -> 127.0.0.1. Check your system network configuration!/ansys_inc/v252/fluent/fluent25.2.0/bin/fluent -r25.2.0 3ddp -flux -node -t4 -peth -mpi=intel -ssh -meshing -mport 127.0.0.1:127.0.0.1:35793:0
Starting /ansys_inc/v252/fluent/fluent25.2.0/multiport/mpi/lnamd64/intel/bin/mpirun -f /tmp/fluent-appfile.aoki.315759 -genv I_MPI_OFI_PROVIDER tcp -genv FLUENT_ARCH lnamd64 -genv I_MPI_DEBUG 0 -genv I_MPI_ADJUST_GATHERV 3 -genv I_MPI_ADJUST_ALLREDUCE 2 -genv I_MPI_PLATFORM auto -genv PYTHONHOME /ansys_inc/v252/fluent/fluent25.2.0/../../commonfiles/CPython/3_10/linx64/Release/python -genv FLUENT_PROD_DIR /ansys_inc/v252/fluent/fluent25.2.0 -genv FLUENT_AFFINITY 0 -genv I_MPI_PIN enable -genv KMP_AFFINITY disabled -n 4 /ansys_inc/v252/fluent/fluent25.2.0/lnamd64/3ddp_node/fluent_mpi.25.2.0 node -mpiw intel -pic ethernet -mport 127.0.0.1:127.0.0.1:35793:0 -meshing

0: mpt_get_dot_address: warning: localhost.localdomain -> 127.0.0.1. Check your system network configuration!
1: mpt_get_dot_address: warning: localhost.localdomain -> 127.0.0.1. Check your system network configuration!
2: mpt_get_dot_address: warning: localhost.localdomain -> 127.0.0.1. Check your system network configuration!
3: mpt_get_dot_address: warning: localhost.localdomain -> 127.0.0.1. Check your system network configuration!
-----------------------------------------------------------------------------------
ID    Hostname              Core   O.S.      PID            Vendor                
-----------------------------------------------------------------------------------
n0-3  localhost.localdomai  4/128  Linux-64  315829-315832  AMD EPYC 9354 32-Core 
host  localhost.localdomai         Linux-64  315257         AMD EPYC 9354 32-Core 

MPI Option Selected: intel
Selected system interconnect: ethernet
-----------------------------------------------------------------------------------


999999: mpt_get_dot_address: warning: localhost.localdomain -> 127.0.0.1. Check your system network configuration!
0: mpt_get_dot_address: warning: localhost.localdomain -> 127.0.0.1. Check your system network configuration!
1: mpt_get_dot_address: warning: localhost.localdomain -> 127.0.0.1. Check your system network configuration!
2: mpt_get_dot_address: warning: localhost.localdomain -> 127.0.0.1. Check your system network configuration!
3: mpt_get_dot_address: warning: localhost.localdomain -> 127.0.0.1. Check your system network configuration!Cleanup script file is /home/aoki/Downloads/pintle_injector/cleanup-fluent-localhost.localdomain-315257.sh

Graphics driver currently in use: null

Posting ANSYS Product Improvement Program startup data
Done.
Information: The server has started and is running.
>>> /ansys_inc/v252/fluent/fluent25.2.0/bin/fluent -r25.2.0 3ddp -py -t4 -gu -driver null -meshing -sifile=/tmp/serverinfo-9dmvix_v.txt -nm
/ansys_inc/v252/fluent/fluent25.2.0/cortex/lnamd64/cortex.25.2.0 -f fluent -py -gu -meshing -sifile=/tmp/serverinfo-9dmvix_v.txt -nm (fluent "3ddp -peth  -host -r25.2.0 -t4 -mpi=intel -path/ansys_inc/v252/fluent -ssh")

Opening input/output transcript to file "/home/aoki/Downloads/pintle_injector/fluent-20260323-121452-317263.trn".
Auto-Transcript Start Time:  12:14:52, 23 Mar 2026 
/ansys_inc/v252/fluent/fluent25.2.0/bin/fluent -r25.2.0 3ddp -peth -host -t4 -mpi=intel -path/ansys_inc/v252/fluent -ssh -cx localhost:43813:44073
Starting /ansys_inc/v252/fluent/fluent25.2.0/lnamd64/3ddp_host/fluent.25.2.0 host -cx localhost:43813:44073 "(list (rpsetvar (QUOTE parallel/function) "fluent 3ddp -flux -node -r25.2.0 -t4 -peth -mpi=intel -ssh") (rpsetvar (QUOTE parallel/rhost) "") (rpsetvar (QUOTE parallel/ruser) "") (rpsetvar (QUOTE parallel/nprocs_string) "4") (rpsetvar (QUOTE parallel/auto-spawn?) #t) (rpsetvar (QUOTE parallel/trace-level) 0) (rpsetvar (QUOTE parallel/remote-shell) 1) (rpsetvar (QUOTE parallel/path) "/ansys_inc/v252/fluent") (rpsetvar (QUOTE parallel/hostsfile) "") (rpsetvar (QUOTE gpuapp/devices) ""))"

              Welcome to ANSYS Fluent 25.2.0

              Copyright 1987-2025 ANSYS, Inc. All Rights Reserved.
              Unauthorized use, distribution or duplication is prohibited.
              This product is subject to U.S. laws governing export and re-export.
              For full Legal Notice, see documentation.

Build Time: Jun 16 2025 09:42:18 EDT  Build Id: 10204  
 
Connected License Server List:	1055@localhost

     --------------------------------------------------------------
     This is an academic version of ANSYS FLUENT. Usage of this product
     license is limited to the terms and conditions specified in your ANSYS
     license form, additional terms section.
     --------------------------------------------------------------
Host spawning Node 0 on machine "localhost.localdomain" (unix).

999999: mpt_get_dot_address: warning: localhost.localdomain -> 127.0.0.1. Check your system network configuration!
999999: mpt_get_dot_address: warning: localhost.localdomain -> 127.0.0.1. Check your system network configuration!/ansys_inc/v252/fluent/fluent25.2.0/bin/fluent -r25.2.0 3ddp -flux -node -t4 -peth -mpi=intel -ssh -meshing -mport 127.0.0.1:127.0.0.1:35017:0
Starting /ansys_inc/v252/fluent/fluent25.2.0/multiport/mpi/lnamd64/intel/bin/mpirun -f /tmp/fluent-appfile.aoki.317829 -genv I_MPI_OFI_PROVIDER tcp -genv FLUENT_ARCH lnamd64 -genv I_MPI_DEBUG 0 -genv I_MPI_ADJUST_GATHERV 3 -genv I_MPI_ADJUST_ALLREDUCE 2 -genv I_MPI_PLATFORM auto -genv PYTHONHOME /ansys_inc/v252/fluent/fluent25.2.0/../../commonfiles/CPython/3_10/linx64/Release/python -genv FLUENT_PROD_DIR /ansys_inc/v252/fluent/fluent25.2.0 -genv FLUENT_AFFINITY 0 -genv I_MPI_PIN enable -genv KMP_AFFINITY disabled -n 4 /ansys_inc/v252/fluent/fluent25.2.0/lnamd64/3ddp_node/fluent_mpi.25.2.0 node -mpiw intel -pic ethernet -mport 127.0.0.1:127.0.0.1:35017:0 -meshing

2: mpt_get_dot_address: warning: localhost.localdomain -> 127.0.0.1. Check your system network configuration!
3: mpt_get_dot_address: warning: localhost.localdomain -> 127.0.0.1. Check your system network configuration!
0: mpt_get_dot_address: warning: localhost.localdomain -> 127.0.0.1. Check your system network configuration!
1: mpt_get_dot_address: warning: localhost.localdomain -> 127.0.0.1. Check your system network configuration!
-----------------------------------------------------------------------------------
ID    Hostname              Core   O.S.      PID            Vendor                
-----------------------------------------------------------------------------------
n0-3  localhost.localdomai  4/128  Linux-64  317899-317902  AMD EPYC 9354 32-Core 
host  localhost.localdomai         Linux-64  317466         AMD EPYC 9354 32-Core 

MPI Option Selected: intel
Selected system interconnect: ethernet
-----------------------------------------------------------------------------------


999999: mpt_get_dot_address: warning: localhost.localdomain -> 127.0.0.1. Check your system network configuration!
0: mpt_get_dot_address: warning: localhost.localdomain -> 127.0.0.1. Check your system network configuration!
1: mpt_get_dot_address: warning: localhost.localdomain -> 127.0.0.1. Check your system network configuration!
2: mpt_get_dot_address: warning: localhost.localdomain -> 127.0.0.1. Check your system network configuration!
3: mpt_get_dot_address: warning: localhost.localdomain -> 127.0.0.1. Check your system network configuration!Cleanup script file is /home/aoki/Downloads/pintle_injector/cleanup-fluent-localhost.localdomain-317466.sh

Graphics driver currently in use: null

Posting ANSYS Product Improvement Program startup data
Done.
Information: The server has started and is running.
>>> 
===============Message from the Cortex Process================================

Fatal error in one of the compute processes.

==============================================================================
Shutting down Server...
Services Shutdown...Done.
Server Shutdown...Done.
Queue Cleared...Done.
Shutdown Complete.
Fatal failure in fluent (disconnected / ended abnormally) - exiting...
/ansys_inc/v252/fluent/fluent25.2.0/bin/fluent -r25.2.0 3ddp -py -t4 -gu -driver null -meshing -sifile=/tmp/serverinfo-e3dky8f1.txt -nm
Warning:  DISPLAY environment variable is not set.
  Graphics and GUI will not operate correctly
  without this being set properly.
/ansys_inc/v252/fluent/fluent25.2.0/cortex/lnamd64/cortex.25.2.0 -f fluent -py -gu -meshing -sifile=/tmp/serverinfo-e3dky8f1.txt -nm (fluent "3ddp -peth  -host -r25.2.0 -t4 -mpi=intel -path/ansys_inc/v252/fluent -ssh")

Opening input/output transcript to file "/home/aoki/Downloads/pintle_injector/fluent-20260323-122822-323298.trn".
Auto-Transcript Start Time:  12:28:22, 23 Mar 2026 
/ansys_inc/v252/fluent/fluent25.2.0/bin/fluent -r25.2.0 3ddp -peth -host -t4 -mpi=intel -path/ansys_inc/v252/fluent -ssh -cx localhost:38811:43781
Warning:  DISPLAY environment variable is not set.
  Graphics and GUI will not operate correctly
  without this being set properly.
Starting /ansys_inc/v252/fluent/fluent25.2.0/lnamd64/3ddp_host/fluent.25.2.0 host -cx localhost:38811:43781 "(list (rpsetvar (QUOTE parallel/function) "fluent 3ddp -flux -node -r25.2.0 -t4 -peth -mpi=intel -ssh") (rpsetvar (QUOTE parallel/rhost) "") (rpsetvar (QUOTE parallel/ruser) "") (rpsetvar (QUOTE parallel/nprocs_string) "4") (rpsetvar (QUOTE parallel/auto-spawn?) #t) (rpsetvar (QUOTE parallel/trace-level) 0) (rpsetvar (QUOTE parallel/remote-shell) 1) (rpsetvar (QUOTE parallel/path) "/ansys_inc/v252/fluent") (rpsetvar (QUOTE parallel/hostsfile) "") (rpsetvar (QUOTE gpuapp/devices) ""))"

              Welcome to ANSYS Fluent 25.2.0

              Copyright 1987-2025 ANSYS, Inc. All Rights Reserved.
              Unauthorized use, distribution or duplication is prohibited.
              This product is subject to U.S. laws governing export and re-export.
              For full Legal Notice, see documentation.

Build Time: Jun 16 2025 09:42:18 EDT  Build Id: 10204  
 
Connected License Server List:	1055@localhost

     --------------------------------------------------------------
     This is an academic version of ANSYS FLUENT. Usage of this product
     license is limited to the terms and conditions specified in your ANSYS
     license form, additional terms section.
     --------------------------------------------------------------
Host spawning Node 0 on machine "localhost.localdomain" (unix).

999999: mpt_get_dot_address: warning: localhost.localdomain -> 127.0.0.1. Check your system network configuration!
999999: mpt_get_dot_address: warning: localhost.localdomain -> 127.0.0.1. Check your system network configuration!/ansys_inc/v252/fluent/fluent25.2.0/bin/fluent -r25.2.0 3ddp -flux -node -t4 -peth -mpi=intel -ssh -meshing -mport 127.0.0.1:127.0.0.1:44665:0
Starting /ansys_inc/v252/fluent/fluent25.2.0/multiport/mpi/lnamd64/intel/bin/mpirun -f /tmp/fluent-appfile.aoki.323864 -genv I_MPI_OFI_PROVIDER tcp -genv FLUENT_ARCH lnamd64 -genv I_MPI_DEBUG 0 -genv I_MPI_ADJUST_GATHERV 3 -genv I_MPI_ADJUST_ALLREDUCE 2 -genv I_MPI_PLATFORM auto -genv PYTHONHOME /ansys_inc/v252/fluent/fluent25.2.0/../../commonfiles/CPython/3_10/linx64/Release/python -genv FLUENT_PROD_DIR /ansys_inc/v252/fluent/fluent25.2.0 -genv FLUENT_AFFINITY 0 -genv I_MPI_PIN enable -genv KMP_AFFINITY disabled -n 4 /ansys_inc/v252/fluent/fluent25.2.0/lnamd64/3ddp_node/fluent_mpi.25.2.0 node -mpiw intel -pic ethernet -mport 127.0.0.1:127.0.0.1:44665:0 -meshing

0: mpt_get_dot_address: warning: localhost.localdomain -> 127.0.0.1. Check your system network configuration!
1: mpt_get_dot_address: warning: localhost.localdomain -> 127.0.0.1. Check your system network configuration!
2: mpt_get_dot_address: warning: localhost.localdomain -> 127.0.0.1. Check your system network configuration!
3: mpt_get_dot_address: warning: localhost.localdomain -> 127.0.0.1. Check your system network configuration!
-----------------------------------------------------------------------------------
ID    Hostname              Core   O.S.      PID            Vendor                
-----------------------------------------------------------------------------------
n0-3  localhost.localdomai  4/128  Linux-64  323934-323937  AMD EPYC 9354 32-Core 
host  localhost.localdomai         Linux-64  323502         AMD EPYC 9354 32-Core 

MPI Option Selected: intel
Selected system interconnect: ethernet
-----------------------------------------------------------------------------------


999999: mpt_get_dot_address: warning: localhost.localdomain -> 127.0.0.1. Check your system network configuration!
0: mpt_get_dot_address: warning: localhost.localdomain -> 127.0.0.1. Check your system network configuration!
1: mpt_get_dot_address: warning: localhost.localdomain -> 127.0.0.1. Check your system network configuration!
2: mpt_get_dot_address: warning: localhost.localdomain -> 127.0.0.1. Check your system network configuration!
3: mpt_get_dot_address: warning: localhost.localdomain -> 127.0.0.1. Check your system network configuration!Cleanup script file is /home/aoki/Downloads/pintle_injector/cleanup-fluent-localhost.localdomain-323502.sh

Graphics driver currently in use: null

Posting ANSYS Product Improvement Program startup data
Done.
Information: The server has started and is running.
>>> /ansys_inc/v252/fluent/fluent25.2.0/bin/fluent -r25.2.0 3ddp -py -t4 -gu -driver null -meshing -sifile=/tmp/serverinfo-11ezn09o.txt -nm
Warning:  DISPLAY environment variable is not set.
  Graphics and GUI will not operate correctly
  without this being set properly.
/ansys_inc/v252/fluent/fluent25.2.0/cortex/lnamd64/cortex.25.2.0 -f fluent -py -gu -meshing -sifile=/tmp/serverinfo-11ezn09o.txt -nm (fluent "3ddp -peth  -host -r25.2.0 -t4 -mpi=intel -path/ansys_inc/v252/fluent -ssh")

Opening input/output transcript to file "/home/aoki/Downloads/pintle_injector/fluent-20260323-123001-325292.trn".
Auto-Transcript Start Time:  12:30:01, 23 Mar 2026 
/ansys_inc/v252/fluent/fluent25.2.0/bin/fluent -r25.2.0 3ddp -peth -host -t4 -mpi=intel -path/ansys_inc/v252/fluent -ssh -cx localhost:38069:33883
Warning:  DISPLAY environment variable is not set.
  Graphics and GUI will not operate correctly
  without this being set properly.
Starting /ansys_inc/v252/fluent/fluent25.2.0/lnamd64/3ddp_host/fluent.25.2.0 host -cx localhost:38069:33883 "(list (rpsetvar (QUOTE parallel/function) "fluent 3ddp -flux -node -r25.2.0 -t4 -peth -mpi=intel -ssh") (rpsetvar (QUOTE parallel/rhost) "") (rpsetvar (QUOTE parallel/ruser) "") (rpsetvar (QUOTE parallel/nprocs_string) "4") (rpsetvar (QUOTE parallel/auto-spawn?) #t) (rpsetvar (QUOTE parallel/trace-level) 0) (rpsetvar (QUOTE parallel/remote-shell) 1) (rpsetvar (QUOTE parallel/path) "/ansys_inc/v252/fluent") (rpsetvar (QUOTE parallel/hostsfile) "") (rpsetvar (QUOTE gpuapp/devices) ""))"

              Welcome to ANSYS Fluent 25.2.0

              Copyright 1987-2025 ANSYS, Inc. All Rights Reserved.
              Unauthorized use, distribution or duplication is prohibited.
              This product is subject to U.S. laws governing export and re-export.
              For full Legal Notice, see documentation.

Build Time: Jun 16 2025 09:42:18 EDT  Build Id: 10204  
 
Connected License Server List:	1055@localhost

     --------------------------------------------------------------
     This is an academic version of ANSYS FLUENT. Usage of this product
     license is limited to the terms and conditions specified in your ANSYS
     license form, additional terms section.
     --------------------------------------------------------------
Host spawning Node 0 on machine "localhost.localdomain" (unix).

999999: mpt_get_dot_address: warning: localhost.localdomain -> 127.0.0.1. Check your system network configuration!
999999: mpt_get_dot_address: warning: localhost.localdomain -> 127.0.0.1. Check your system network configuration!/ansys_inc/v252/fluent/fluent25.2.0/bin/fluent -r25.2.0 3ddp -flux -node -t4 -peth -mpi=intel -ssh -meshing -mport 127.0.0.1:127.0.0.1:35753:0
Starting /ansys_inc/v252/fluent/fluent25.2.0/multiport/mpi/lnamd64/intel/bin/mpirun -f /tmp/fluent-appfile.aoki.325879 -genv I_MPI_OFI_PROVIDER tcp -genv FLUENT_ARCH lnamd64 -genv I_MPI_DEBUG 0 -genv I_MPI_ADJUST_GATHERV 3 -genv I_MPI_ADJUST_ALLREDUCE 2 -genv I_MPI_PLATFORM auto -genv PYTHONHOME /ansys_inc/v252/fluent/fluent25.2.0/../../commonfiles/CPython/3_10/linx64/Release/python -genv FLUENT_PROD_DIR /ansys_inc/v252/fluent/fluent25.2.0 -genv FLUENT_AFFINITY 0 -genv I_MPI_PIN enable -genv KMP_AFFINITY disabled -n 4 /ansys_inc/v252/fluent/fluent25.2.0/lnamd64/3ddp_node/fluent_mpi.25.2.0 node -mpiw intel -pic ethernet -mport 127.0.0.1:127.0.0.1:35753:0 -meshing

0: mpt_get_dot_address: warning: localhost.localdomain -> 127.0.0.1. Check your system network configuration!
2: mpt_get_dot_address: warning: localhost.localdomain -> 127.0.0.1. Check your system network configuration!
3: mpt_get_dot_address: warning: localhost.localdomain -> 127.0.0.1. Check your system network configuration!
1: mpt_get_dot_address: warning: localhost.localdomain -> 127.0.0.1. Check your system network configuration!
-----------------------------------------------------------------------------------
ID    Hostname              Core   O.S.      PID            Vendor                
-----------------------------------------------------------------------------------
n0-3  localhost.localdomai  4/128  Linux-64  325949-325952  AMD EPYC 9354 32-Core 
host  localhost.localdomai         Linux-64  325509         AMD EPYC 9354 32-Core 

MPI Option Selected: intel
Selected system interconnect: ethernet
-----------------------------------------------------------------------------------


999999: mpt_get_dot_address: warning: localhost.localdomain -> 127.0.0.1. Check your system network configuration!
0: mpt_get_dot_address: warning: localhost.localdomain -> 127.0.0.1. Check your system network configuration!
1: mpt_get_dot_address: warning: localhost.localdomain -> 127.0.0.1. Check your system network configuration!
2: mpt_get_dot_address: warning: localhost.localdomain -> 127.0.0.1. Check your system network configuration!
3: mpt_get_dot_address: warning: localhost.localdomain -> 127.0.0.1. Check your system network configuration!Cleanup script file is /home/aoki/Downloads/pintle_injector/cleanup-fluent-localhost.localdomain-325509.sh

Graphics driver currently in use: null

Posting ANSYS Product Improvement Program startup data
Done.
Information: The server has started and is running.
>>> /ansys_inc/v252/fluent/fluent25.2.0/bin/fluent -r25.2.0 3ddp -py -t4 -gu -driver null -meshing -sifile=/tmp/serverinfo-0ap2_w4q.txt -nm
Warning:  DISPLAY environment variable is not set.
  Graphics and GUI will not operate correctly
  without this being set properly.
/ansys_inc/v252/fluent/fluent25.2.0/cortex/lnamd64/cortex.25.2.0 -f fluent -py -gu -meshing -sifile=/tmp/serverinfo-0ap2_w4q.txt -nm (fluent "3ddp -peth  -host -r25.2.0 -t4 -mpi=intel -path/ansys_inc/v252/fluent -ssh")

Opening input/output transcript to file "/home/aoki/Downloads/pintle_injector/fluent-20260323-123058-327139.trn".
Auto-Transcript Start Time:  12:30:58, 23 Mar 2026 
/ansys_inc/v252/fluent/fluent25.2.0/bin/fluent -r25.2.0 3ddp -peth -host -t4 -mpi=intel -path/ansys_inc/v252/fluent -ssh -cx localhost:42769:33495
Warning:  DISPLAY environment variable is not set.
  Graphics and GUI will not operate correctly
  without this being set properly.
Starting /ansys_inc/v252/fluent/fluent25.2.0/lnamd64/3ddp_host/fluent.25.2.0 host -cx localhost:42769:33495 "(list (rpsetvar (QUOTE parallel/function) "fluent 3ddp -flux -node -r25.2.0 -t4 -peth -mpi=intel -ssh") (rpsetvar (QUOTE parallel/rhost) "") (rpsetvar (QUOTE parallel/ruser) "") (rpsetvar (QUOTE parallel/nprocs_string) "4") (rpsetvar (QUOTE parallel/auto-spawn?) #t) (rpsetvar (QUOTE parallel/trace-level) 0) (rpsetvar (QUOTE parallel/remote-shell) 1) (rpsetvar (QUOTE parallel/path) "/ansys_inc/v252/fluent") (rpsetvar (QUOTE parallel/hostsfile) "") (rpsetvar (QUOTE gpuapp/devices) ""))"

              Welcome to ANSYS Fluent 25.2.0

              Copyright 1987-2025 ANSYS, Inc. All Rights Reserved.
              Unauthorized use, distribution or duplication is prohibited.
              This product is subject to U.S. laws governing export and re-export.
              For full Legal Notice, see documentation.

Build Time: Jun 16 2025 09:42:18 EDT  Build Id: 10204  
 
Connected License Server List:	1055@localhost

     --------------------------------------------------------------
     This is an academic version of ANSYS FLUENT. Usage of this product
     license is limited to the terms and conditions specified in your ANSYS
     license form, additional terms section.
     --------------------------------------------------------------
Host spawning Node 0 on machine "localhost.localdomain" (unix).

999999: mpt_get_dot_address: warning: localhost.localdomain -> 127.0.0.1. Check your system network configuration!
999999: mpt_get_dot_address: warning: localhost.localdomain -> 127.0.0.1. Check your system network configuration!/ansys_inc/v252/fluent/fluent25.2.0/bin/fluent -r25.2.0 3ddp -flux -node -t4 -peth -mpi=intel -ssh -meshing -mport 127.0.0.1:127.0.0.1:35597:0
Starting /ansys_inc/v252/fluent/fluent25.2.0/multiport/mpi/lnamd64/intel/bin/mpirun -f /tmp/fluent-appfile.aoki.327704 -genv I_MPI_OFI_PROVIDER tcp -genv FLUENT_ARCH lnamd64 -genv I_MPI_DEBUG 0 -genv I_MPI_ADJUST_GATHERV 3 -genv I_MPI_ADJUST_ALLREDUCE 2 -genv I_MPI_PLATFORM auto -genv PYTHONHOME /ansys_inc/v252/fluent/fluent25.2.0/../../commonfiles/CPython/3_10/linx64/Release/python -genv FLUENT_PROD_DIR /ansys_inc/v252/fluent/fluent25.2.0 -genv FLUENT_AFFINITY 0 -genv I_MPI_PIN enable -genv KMP_AFFINITY disabled -n 4 /ansys_inc/v252/fluent/fluent25.2.0/lnamd64/3ddp_node/fluent_mpi.25.2.0 node -mpiw intel -pic ethernet -mport 127.0.0.1:127.0.0.1:35597:0 -meshing

0: mpt_get_dot_address: warning: localhost.localdomain -> 127.0.0.1. Check your system network configuration!
1: mpt_get_dot_address: warning: localhost.localdomain -> 127.0.0.1. Check your system network configuration!
2: mpt_get_dot_address: warning: localhost.localdomain -> 127.0.0.1. Check your system network configuration!
3: mpt_get_dot_address: warning: localhost.localdomain -> 127.0.0.1. Check your system network configuration!
-----------------------------------------------------------------------------------
ID    Hostname              Core   O.S.      PID            Vendor                
-----------------------------------------------------------------------------------
n0-3  localhost.localdomai  4/128  Linux-64  327774-327777  AMD EPYC 9354 32-Core 
host  localhost.localdomai         Linux-64  327342         AMD EPYC 9354 32-Core 

MPI Option Selected: intel
Selected system interconnect: ethernet
-----------------------------------------------------------------------------------


999999: mpt_get_dot_address: warning: localhost.localdomain -> 127.0.0.1. Check your system network configuration!
0: mpt_get_dot_address: warning: localhost.localdomain -> 127.0.0.1. Check your system network configuration!
1: mpt_get_dot_address: warning: localhost.localdomain -> 127.0.0.1. Check your system network configuration!
2: mpt_get_dot_address: warning: localhost.localdomain -> 127.0.0.1. Check your system network configuration!
3: mpt_get_dot_address: warning: localhost.localdomain -> 127.0.0.1. Check your system network configuration!Cleanup script file is /home/aoki/Downloads/pintle_injector/cleanup-fluent-localhost.localdomain-327342.sh

Graphics driver currently in use: null

Posting ANSYS Product Improvement Program startup data
Done.
Information: The server has started and is running.
>>> /ansys_inc/v252/fluent/fluent25.2.0/bin/fluent -r25.2.0 3ddp -py -t4 -g -driver null -meshing -sifile=/tmp/serverinfo-b9z4a6iz.txt -nm
/ansys_inc/v252/fluent/fluent25.2.0/cortex/lnamd64/cortex.25.2.0 -f fluent -py -g -meshing -sifile=/tmp/serverinfo-b9z4a6iz.txt -nm (fluent "3ddp -peth  -host -r25.2.0 -t4 -mpi=intel -path/ansys_inc/v252/fluent -ssh")

Opening input/output transcript to file "/home/aoki/Downloads/pintle_injector/fluent-20260323-123837-331230.trn".
Auto-Transcript Start Time:  12:38:37, 23 Mar 2026 
/ansys_inc/v252/fluent/fluent25.2.0/bin/fluent -r25.2.0 3ddp -peth -host -t4 -mpi=intel -path/ansys_inc/v252/fluent -ssh -cx localhost:45697:45109
Starting /ansys_inc/v252/fluent/fluent25.2.0/lnamd64/3ddp_host/fluent.25.2.0 host -cx localhost:45697:45109 "(list (rpsetvar (QUOTE parallel/function) "fluent 3ddp -flux -node -r25.2.0 -t4 -peth -mpi=intel -ssh") (rpsetvar (QUOTE parallel/rhost) "") (rpsetvar (QUOTE parallel/ruser) "") (rpsetvar (QUOTE parallel/nprocs_string) "4") (rpsetvar (QUOTE parallel/auto-spawn?) #t) (rpsetvar (QUOTE parallel/trace-level) 0) (rpsetvar (QUOTE parallel/remote-shell) 1) (rpsetvar (QUOTE parallel/path) "/ansys_inc/v252/fluent") (rpsetvar (QUOTE parallel/hostsfile) "") (rpsetvar (QUOTE gpuapp/devices) ""))"

              Welcome to ANSYS Fluent 25.2.0

              Copyright 1987-2025 ANSYS, Inc. All Rights Reserved.
              Unauthorized use, distribution or duplication is prohibited.
              This product is subject to U.S. laws governing export and re-export.
              For full Legal Notice, see documentation.

Build Time: Jun 16 2025 09:42:18 EDT  Build Id: 10204  
 
Connected License Server List:	1055@localhost

     --------------------------------------------------------------
     This is an academic version of ANSYS FLUENT. Usage of this product
     license is limited to the terms and conditions specified in your ANSYS
     license form, additional terms section.
     --------------------------------------------------------------
Host spawning Node 0 on machine "localhost.localdomain" (unix).

999999: mpt_get_dot_address: warning: localhost.localdomain -> 127.0.0.1. Check your system network configuration!
999999: mpt_get_dot_address: warning: localhost.localdomain -> 127.0.0.1. Check your system network configuration!/ansys_inc/v252/fluent/fluent25.2.0/bin/fluent -r25.2.0 3ddp -flux -node -t4 -peth -mpi=intel -ssh -meshing -mport 127.0.0.1:127.0.0.1:34727:0
Starting /ansys_inc/v252/fluent/fluent25.2.0/multiport/mpi/lnamd64/intel/bin/mpirun -f /tmp/fluent-appfile.aoki.331957 -genv I_MPI_OFI_PROVIDER tcp -genv FLUENT_ARCH lnamd64 -genv I_MPI_DEBUG 0 -genv I_MPI_ADJUST_GATHERV 3 -genv I_MPI_ADJUST_ALLREDUCE 2 -genv I_MPI_PLATFORM auto -genv PYTHONHOME /ansys_inc/v252/fluent/fluent25.2.0/../../commonfiles/CPython/3_10/linx64/Release/python -genv FLUENT_PROD_DIR /ansys_inc/v252/fluent/fluent25.2.0 -genv FLUENT_AFFINITY 0 -genv I_MPI_PIN enable -genv KMP_AFFINITY disabled -n 4 /ansys_inc/v252/fluent/fluent25.2.0/lnamd64/3ddp_node/fluent_mpi.25.2.0 node -mpiw intel -pic ethernet -mport 127.0.0.1:127.0.0.1:34727:0 -meshing

0: mpt_get_dot_address: warning: localhost.localdomain -> 127.0.0.1. Check your system network configuration!
1: mpt_get_dot_address: warning: localhost.localdomain -> 127.0.0.1. Check your system network configuration!
2: mpt_get_dot_address: warning: localhost.localdomain -> 127.0.0.1. Check your system network configuration!
3: mpt_get_dot_address: warning: localhost.localdomain -> 127.0.0.1. Check your system network configuration!
-----------------------------------------------------------------------------------
ID    Hostname              Core   O.S.      PID            Vendor                
-----------------------------------------------------------------------------------
n0-3  localhost.localdomai  4/128  Linux-64  332027-332030  AMD EPYC 9354 32-Core 
host  localhost.localdomai         Linux-64  331590         AMD EPYC 9354 32-Core 

MPI Option Selected: intel
Selected system interconnect: ethernet
-----------------------------------------------------------------------------------


999999: mpt_get_dot_address: warning: localhost.localdomain -> 127.0.0.1. Check your system network configuration!
0: mpt_get_dot_address: warning: localhost.localdomain -> 127.0.0.1. Check your system network configuration!
1: mpt_get_dot_address: warning: localhost.localdomain -> 127.0.0.1. Check your system network configuration!
2: mpt_get_dot_address: warning: localhost.localdomain -> 127.0.0.1. Check your system network configuration!
3: mpt_get_dot_address: warning: localhost.localdomain -> 127.0.0.1. Check your system network configuration!Cleanup script file is /home/aoki/Downloads/pintle_injector/cleanup-fluent-localhost.localdomain-331590.sh

Posting ANSYS Product Improvement Program startup data
Done.
Information: The server has started and is running.
>>> /ansys_inc/v252/fluent/fluent25.2.0/bin/fluent -r25.2.0 3ddp -py -t4 -g -driver null -meshing -sifile=/tmp/serverinfo-xn9d6qph.txt -nm
/ansys_inc/v252/fluent/fluent25.2.0/cortex/lnamd64/cortex.25.2.0 -f fluent -py -g -meshing -sifile=/tmp/serverinfo-xn9d6qph.txt -nm (fluent "3ddp -peth  -host -r25.2.0 -t4 -mpi=intel -path/ansys_inc/v252/fluent -ssh")

Opening input/output transcript to file "/home/aoki/Downloads/pintle_injector/fluent-20260323-124233-334343.trn".
Auto-Transcript Start Time:  12:42:33, 23 Mar 2026 
/ansys_inc/v252/fluent/fluent25.2.0/bin/fluent -r25.2.0 3ddp -peth -host -t4 -mpi=intel -path/ansys_inc/v252/fluent -ssh -cx localhost:42209:38913
Starting /ansys_inc/v252/fluent/fluent25.2.0/lnamd64/3ddp_host/fluent.25.2.0 host -cx localhost:42209:38913 "(list (rpsetvar (QUOTE parallel/function) "fluent 3ddp -flux -node -r25.2.0 -t4 -peth -mpi=intel -ssh") (rpsetvar (QUOTE parallel/rhost) "") (rpsetvar (QUOTE parallel/ruser) "") (rpsetvar (QUOTE parallel/nprocs_string) "4") (rpsetvar (QUOTE parallel/auto-spawn?) #t) (rpsetvar (QUOTE parallel/trace-level) 0) (rpsetvar (QUOTE parallel/remote-shell) 1) (rpsetvar (QUOTE parallel/path) "/ansys_inc/v252/fluent") (rpsetvar (QUOTE parallel/hostsfile) "") (rpsetvar (QUOTE gpuapp/devices) ""))"

              Welcome to ANSYS Fluent 25.2.0

              Copyright 1987-2025 ANSYS, Inc. All Rights Reserved.
              Unauthorized use, distribution or duplication is prohibited.
              This product is subject to U.S. laws governing export and re-export.
              For full Legal Notice, see documentation.

Build Time: Jun 16 2025 09:42:18 EDT  Build Id: 10204  
 
Connected License Server List:	1055@localhost

     --------------------------------------------------------------
     This is an academic version of ANSYS FLUENT. Usage of this product
     license is limited to the terms and conditions specified in your ANSYS
     license form, additional terms section.
     --------------------------------------------------------------
Host spawning Node 0 on machine "localhost.localdomain" (unix).

999999: mpt_get_dot_address: warning: localhost.localdomain -> 127.0.0.1. Check your system network configuration!
999999: mpt_get_dot_address: warning: localhost.localdomain -> 127.0.0.1. Check your system network configuration!/ansys_inc/v252/fluent/fluent25.2.0/bin/fluent -r25.2.0 3ddp -flux -node -t4 -peth -mpi=intel -ssh -meshing -mport 127.0.0.1:127.0.0.1:40163:0
Starting /ansys_inc/v252/fluent/fluent25.2.0/multiport/mpi/lnamd64/intel/bin/mpirun -f /tmp/fluent-appfile.aoki.334910 -genv I_MPI_OFI_PROVIDER tcp -genv FLUENT_ARCH lnamd64 -genv I_MPI_DEBUG 0 -genv I_MPI_ADJUST_GATHERV 3 -genv I_MPI_ADJUST_ALLREDUCE 2 -genv I_MPI_PLATFORM auto -genv PYTHONHOME /ansys_inc/v252/fluent/fluent25.2.0/../../commonfiles/CPython/3_10/linx64/Release/python -genv FLUENT_PROD_DIR /ansys_inc/v252/fluent/fluent25.2.0 -genv FLUENT_AFFINITY 0 -genv I_MPI_PIN enable -genv KMP_AFFINITY disabled -n 4 /ansys_inc/v252/fluent/fluent25.2.0/lnamd64/3ddp_node/fluent_mpi.25.2.0 node -mpiw intel -pic ethernet -mport 127.0.0.1:127.0.0.1:40163:0 -meshing

0: mpt_get_dot_address: warning: localhost.localdomain -> 127.0.0.1. Check your system network configuration!
2: mpt_get_dot_address: warning: localhost.localdomain -> 127.0.0.1. Check your system network configuration!
3: mpt_get_dot_address: warning: localhost.localdomain -> 127.0.0.1. Check your system network configuration!
1: mpt_get_dot_address: warning: localhost.localdomain -> 127.0.0.1. Check your system network configuration!
-----------------------------------------------------------------------------------
ID    Hostname              Core   O.S.      PID            Vendor                
-----------------------------------------------------------------------------------
n0-3  localhost.localdomai  4/128  Linux-64  334980-334983  AMD EPYC 9354 32-Core 
host  localhost.localdomai         Linux-64  334547         AMD EPYC 9354 32-Core 

MPI Option Selected: intel
Selected system interconnect: ethernet
-----------------------------------------------------------------------------------


999999: mpt_get_dot_address: warning: localhost.localdomain -> 127.0.0.1. Check your system network configuration!
0: mpt_get_dot_address: warning: localhost.localdomain -> 127.0.0.1. Check your system network configuration!
1: mpt_get_dot_address: warning: localhost.localdomain -> 127.0.0.1. Check your system network configuration!
2: mpt_get_dot_address: warning: localhost.localdomain -> 127.0.0.1. Check your system network configuration!
3: mpt_get_dot_address: warning: localhost.localdomain -> 127.0.0.1. Check your system network configuration!Cleanup script file is /home/aoki/Downloads/pintle_injector/cleanup-fluent-localhost.localdomain-334547.sh

Posting ANSYS Product Improvement Program startup data
Done.
Information: The server has started and is running.
>>> 
Posting ANSYS Product Improvement Program performance data 
Done.
Shutting down Server...
Services Shutdown...Done.
Server Shutdown...Done.
Queue Cleared...Done.
Shutdown Complete.
Auto-Transcript Stop Time:  12:42:47, 23 Mar 2026 
Total Transcript Time: 0 Minute 14 Second.

Automatic transcript closed.
/ansys_inc/v252/fluent/fluent25.2.0/bin/fluent -r25.2.0 3ddp -py -t4 -g -driver null -meshing -sifile=/tmp/serverinfo-xbtixvop.txt -nm
/ansys_inc/v252/fluent/fluent25.2.0/cortex/lnamd64/cortex.25.2.0 -f fluent -py -g -meshing -sifile=/tmp/serverinfo-xbtixvop.txt -nm (fluent "3ddp -peth  -host -r25.2.0 -t4 -mpi=intel -path/ansys_inc/v252/fluent -ssh")

Opening input/output transcript to file "/home/aoki/Downloads/pintle_injector/fluent-20260323-124542-337161.trn".
Auto-Transcript Start Time:  12:45:42, 23 Mar 2026 
/ansys_inc/v252/fluent/fluent25.2.0/bin/fluent -r25.2.0 3ddp -peth -host -t4 -mpi=intel -path/ansys_inc/v252/fluent -ssh -cx localhost:34821:38025
Starting /ansys_inc/v252/fluent/fluent25.2.0/lnamd64/3ddp_host/fluent.25.2.0 host -cx localhost:34821:38025 "(list (rpsetvar (QUOTE parallel/function) "fluent 3ddp -flux -node -r25.2.0 -t4 -peth -mpi=intel -ssh") (rpsetvar (QUOTE parallel/rhost) "") (rpsetvar (QUOTE parallel/ruser) "") (rpsetvar (QUOTE parallel/nprocs_string) "4") (rpsetvar (QUOTE parallel/auto-spawn?) #t) (rpsetvar (QUOTE parallel/trace-level) 0) (rpsetvar (QUOTE parallel/remote-shell) 1) (rpsetvar (QUOTE parallel/path) "/ansys_inc/v252/fluent") (rpsetvar (QUOTE parallel/hostsfile) "") (rpsetvar (QUOTE gpuapp/devices) ""))"

              Welcome to ANSYS Fluent 25.2.0

              Copyright 1987-2025 ANSYS, Inc. All Rights Reserved.
              Unauthorized use, distribution or duplication is prohibited.
              This product is subject to U.S. laws governing export and re-export.
              For full Legal Notice, see documentation.

Build Time: Jun 16 2025 09:42:18 EDT  Build Id: 10204  
 
Connected License Server List:	1055@localhost

     --------------------------------------------------------------
     This is an academic version of ANSYS FLUENT. Usage of this product
     license is limited to the terms and conditions specified in your ANSYS
     license form, additional terms section.
     --------------------------------------------------------------
Host spawning Node 0 on machine "localhost.localdomain" (unix).

999999: mpt_get_dot_address: warning: localhost.localdomain -> 127.0.0.1. Check your system network configuration!
999999: mpt_get_dot_address: warning: localhost.localdomain -> 127.0.0.1. Check your system network configuration!/ansys_inc/v252/fluent/fluent25.2.0/bin/fluent -r25.2.0 3ddp -flux -node -t4 -peth -mpi=intel -ssh -meshing -mport 127.0.0.1:127.0.0.1:41477:0
Starting /ansys_inc/v252/fluent/fluent25.2.0/multiport/mpi/lnamd64/intel/bin/mpirun -f /tmp/fluent-appfile.aoki.337729 -genv I_MPI_OFI_PROVIDER tcp -genv FLUENT_ARCH lnamd64 -genv I_MPI_DEBUG 0 -genv I_MPI_ADJUST_GATHERV 3 -genv I_MPI_ADJUST_ALLREDUCE 2 -genv I_MPI_PLATFORM auto -genv PYTHONHOME /ansys_inc/v252/fluent/fluent25.2.0/../../commonfiles/CPython/3_10/linx64/Release/python -genv FLUENT_PROD_DIR /ansys_inc/v252/fluent/fluent25.2.0 -genv FLUENT_AFFINITY 0 -genv I_MPI_PIN enable -genv KMP_AFFINITY disabled -n 4 /ansys_inc/v252/fluent/fluent25.2.0/lnamd64/3ddp_node/fluent_mpi.25.2.0 node -mpiw intel -pic ethernet -mport 127.0.0.1:127.0.0.1:41477:0 -meshing

3: mpt_get_dot_address: warning: localhost.localdomain -> 127.0.0.1. Check your system network configuration!
0: mpt_get_dot_address: warning: localhost.localdomain -> 127.0.0.1. Check your system network configuration!
1: mpt_get_dot_address: warning: localhost.localdomain -> 127.0.0.1. Check your system network configuration!
2: mpt_get_dot_address: warning: localhost.localdomain -> 127.0.0.1. Check your system network configuration!
-----------------------------------------------------------------------------------
ID    Hostname              Core   O.S.      PID            Vendor                
-----------------------------------------------------------------------------------
n0-3  localhost.localdomai  4/128  Linux-64  337799-337802  AMD EPYC 9354 32-Core 
host  localhost.localdomai         Linux-64  337365         AMD EPYC 9354 32-Core 

MPI Option Selected: intel
Selected system interconnect: ethernet
-----------------------------------------------------------------------------------


999999: mpt_get_dot_address: warning: localhost.localdomain -> 127.0.0.1. Check your system network configuration!
0: mpt_get_dot_address: warning: localhost.localdomain -> 127.0.0.1. Check your system network configuration!
1: mpt_get_dot_address: warning: localhost.localdomain -> 127.0.0.1. Check your system network configuration!
2: mpt_get_dot_address: warning: localhost.localdomain -> 127.0.0.1. Check your system network configuration!
3: mpt_get_dot_address: warning: localhost.localdomain -> 127.0.0.1. Check your system network configuration!Cleanup script file is /home/aoki/Downloads/pintle_injector/cleanup-fluent-localhost.localdomain-337365.sh

Posting ANSYS Product Improvement Program startup data
Done.
Information: The server has started and is running.
>>> 
Error: invalid command
Error Object: "mesh"

Error: invalid command
Error Object: "mesh"

Error: eval: unbound variable
Error Object: cx-create-edge-from-points
/mesh/s/mesh/m
Posting ANSYS Product Improvement Program performance data 
Done.
Shutting down Server...
Services Shutdown...Done.
Server Shutdown...Done.
Queue Cleared...Done.
Shutdown Complete.
Auto-Transcript Stop Time:  12:45:56, 23 Mar 2026 
Total Transcript Time: 0 Minute 14 Second.

Automatic transcript closed.
/ansys_inc/v252/fluent/fluent25.2.0/bin/fluent -r25.2.0 3ddp -py -t8 -g -driver null -sifile=/tmp/serverinfo-dt7h_2ey.txt -nm
/ansys_inc/v252/fluent/fluent25.2.0/cortex/lnamd64/cortex.25.2.0 -f fluent -py -g -sifile=/tmp/serverinfo-dt7h_2ey.txt -nm (fluent "3ddp -pdefault  -host -r25.2.0 -t8 -mpi=intel -path/ansys_inc/v252/fluent -ssh")

Opening input/output transcript to file "/home/aoki/Downloads/pintle_injector/fluent-20260323-143008-374569.trn".
Auto-Transcript Start Time:  14:30:08, 23 Mar 2026 
/ansys_inc/v252/fluent/fluent25.2.0/bin/fluent -r25.2.0 3ddp -pdefault -host -t8 -mpi=intel -path/ansys_inc/v252/fluent -ssh -cx localhost:41087:42255
Starting /ansys_inc/v252/fluent/fluent25.2.0/lnamd64/3ddp_host/fluent.25.2.0 host -cx localhost:41087:42255 "(list (rpsetvar (QUOTE parallel/function) "fluent 3ddp -flux -node -r25.2.0 -t8 -pdefault -mpi=intel -ssh") (rpsetvar (QUOTE parallel/rhost) "") (rpsetvar (QUOTE parallel/ruser) "") (rpsetvar (QUOTE parallel/nprocs_string) "8") (rpsetvar (QUOTE parallel/auto-spawn?) #t) (rpsetvar (QUOTE parallel/trace-level) 0) (rpsetvar (QUOTE parallel/remote-shell) 1) (rpsetvar (QUOTE parallel/path) "/ansys_inc/v252/fluent") (rpsetvar (QUOTE parallel/hostsfile) "") (rpsetvar (QUOTE gpuapp/devices) ""))"

              Welcome to ANSYS Fluent 25.2.0

              Copyright 1987-2025 ANSYS, Inc. All Rights Reserved.
              Unauthorized use, distribution or duplication is prohibited.
              This product is subject to U.S. laws governing export and re-export.
              For full Legal Notice, see documentation.

Build Time: Jun 16 2025 09:42:18 EDT  Build Id: 10204  
 
Connected License Server List:	1055@localhost

     --------------------------------------------------------------
     This is an academic version of ANSYS FLUENT. Usage of this product
     license is limited to the terms and conditions specified in your ANSYS
     license form, additional terms section.
     --------------------------------------------------------------
Host spawning Node 0 on machine "localhost.localdomain" (unix).

999999: mpt_get_dot_address: warning: localhost.localdomain -> 127.0.0.1. Check your system network configuration!
999999: mpt_get_dot_address: warning: localhost.localdomain -> 127.0.0.1. Check your system network configuration!/ansys_inc/v252/fluent/fluent25.2.0/bin/fluent -r25.2.0 3ddp -flux -node -t8 -pdefault -mpi=intel -ssh -mport 127.0.0.1:127.0.0.1:34049:0
Starting /ansys_inc/v252/fluent/fluent25.2.0/multiport/mpi/lnamd64/intel/bin/mpirun -f /tmp/fluent-appfile.aoki.375275 -genv I_MPI_FABRICS shm -genv FLUENT_ARCH lnamd64 -genv I_MPI_DEBUG 0 -genv I_MPI_ADJUST_GATHERV 3 -genv I_MPI_ADJUST_ALLREDUCE 2 -genv I_MPI_PLATFORM auto -genv PYTHONHOME /ansys_inc/v252/fluent/fluent25.2.0/../../commonfiles/CPython/3_10/linx64/Release/python -genv FLUENT_PROD_DIR /ansys_inc/v252/fluent/fluent25.2.0 -genv FLUENT_AFFINITY 0 -genv I_MPI_PIN enable -genv KMP_AFFINITY disabled -n 8 /ansys_inc/v252/fluent/fluent25.2.0/lnamd64/3ddp_node/fluent_mpi.25.2.0 node -mpiw intel -pic shmem -mport 127.0.0.1:127.0.0.1:34049:0

0: mpt_get_dot_address: warning: localhost.localdomain -> 127.0.0.1. Check your system network configuration!
4: mpt_get_dot_address: warning: localhost.localdomain -> 127.0.0.1. Check your system network configuration!
5: mpt_get_dot_address: warning: localhost.localdomain -> 127.0.0.1. Check your system network configuration!
6: mpt_get_dot_address: warning: localhost.localdomain -> 127.0.0.1. Check your system network configuration!
7: mpt_get_dot_address: warning: localhost.localdomain -> 127.0.0.1. Check your system network configuration!
1: mpt_get_dot_address: warning: localhost.localdomain -> 127.0.0.1. Check your system network configuration!
2: mpt_get_dot_address: warning: localhost.localdomain -> 127.0.0.1. Check your system network configuration!
3: mpt_get_dot_address: warning: localhost.localdomain -> 127.0.0.1. Check your system network configuration!
-----------------------------------------------------------------------------------
ID    Hostname              Core   O.S.      PID            Vendor                
-----------------------------------------------------------------------------------
n0-7  localhost.localdomai  8/128  Linux-64  375346-375353  AMD EPYC 9354 32-Core 
host  localhost.localdomai         Linux-64  374801         AMD EPYC 9354 32-Core 

MPI Option Selected: intel
Selected system interconnect: shared-memory
-----------------------------------------------------------------------------------


999999: mpt_get_dot_address: warning: localhost.localdomain -> 127.0.0.1. Check your system network configuration!
0: mpt_get_dot_address: warning: localhost.localdomain -> 127.0.0.1. Check your system network configuration!
4: mpt_get_dot_address: warning: localhost.localdomain -> 127.0.0.1. Check your system network configuration!
6: mpt_get_dot_address: warning: localhost.localdomain -> 127.0.0.1. Check your system network configuration!
7: mpt_get_dot_address: warning: localhost.localdomain -> 127.0.0.1. Check your system network configuration!
1: mpt_get_dot_address: warning: localhost.localdomain -> 127.0.0.1. Check your system network configuration!
2: mpt_get_dot_address: warning: localhost.localdomain -> 127.0.0.1. Check your system network configuration!
3: mpt_get_dot_address: warning: localhost.localdomain -> 127.0.0.1. Check your system network configuration!
5: mpt_get_dot_address: warning: localhost.localdomain -> 127.0.0.1. Check your system network configuration!Cleanup script file is /home/aoki/Downloads/pintle_injector/cleanup-fluent-localhost.localdomain-374801.sh

Posting ANSYS Product Improvement Program startup data
Done.
Information: The server has started and is running.
>>> 
Error: File "/home/aoki/Downloads/pintle_injector/pintle_injector.msh.h5" not found!
Error Object: #f

Error: File "/home/aoki/Downloads/pintle_injector/pintle_injector.msh.h5" not found!
Error Object: #f

Posting ANSYS Product Improvement Program performance data 
Done.
Shutting down Server...
Services Shutdown...Done.
Server Shutdown...Done.
Queue Cleared...Done.
Shutdown Complete.
Auto-Transcript Stop Time:  14:30:22, 23 Mar 2026 
Total Transcript Time: 0 Minute 13 Second.

Automatic transcript closed.
/ansys_inc/v252/fluent/fluent25.2.0/bin/fluent -r25.2.0 3ddp -py -t8 -g -driver null -sifile=/tmp/serverinfo-7qkha2z0.txt -nm
/ansys_inc/v252/fluent/fluent25.2.0/cortex/lnamd64/cortex.25.2.0 -f fluent -py -g -sifile=/tmp/serverinfo-7qkha2z0.txt -nm (fluent "3ddp -pdefault  -host -r25.2.0 -t8 -mpi=intel -path/ansys_inc/v252/fluent -ssh")

Opening input/output transcript to file "/home/aoki/Downloads/pintle_injector/fluent-20260323-143953-380221.trn".
Auto-Transcript Start Time:  14:39:53, 23 Mar 2026 
/ansys_inc/v252/fluent/fluent25.2.0/bin/fluent -r25.2.0 3ddp -pdefault -host -t8 -mpi=intel -path/ansys_inc/v252/fluent -ssh -cx localhost:40839:45619
Starting /ansys_inc/v252/fluent/fluent25.2.0/lnamd64/3ddp_host/fluent.25.2.0 host -cx localhost:40839:45619 "(list (rpsetvar (QUOTE parallel/function) "fluent 3ddp -flux -node -r25.2.0 -t8 -pdefault -mpi=intel -ssh") (rpsetvar (QUOTE parallel/rhost) "") (rpsetvar (QUOTE parallel/ruser) "") (rpsetvar (QUOTE parallel/nprocs_string) "8") (rpsetvar (QUOTE parallel/auto-spawn?) #t) (rpsetvar (QUOTE parallel/trace-level) 0) (rpsetvar (QUOTE parallel/remote-shell) 1) (rpsetvar (QUOTE parallel/path) "/ansys_inc/v252/fluent") (rpsetvar (QUOTE parallel/hostsfile) "") (rpsetvar (QUOTE gpuapp/devices) ""))"

              Welcome to ANSYS Fluent 25.2.0

              Copyright 1987-2025 ANSYS, Inc. All Rights Reserved.
              Unauthorized use, distribution or duplication is prohibited.
              This product is subject to U.S. laws governing export and re-export.
              For full Legal Notice, see documentation.

Build Time: Jun 16 2025 09:42:18 EDT  Build Id: 10204  
 
Connected License Server List:	1055@localhost

     --------------------------------------------------------------
     This is an academic version of ANSYS FLUENT. Usage of this product
     license is limited to the terms and conditions specified in your ANSYS
     license form, additional terms section.
     --------------------------------------------------------------
Host spawning Node 0 on machine "localhost.localdomain" (unix).

999999: mpt_get_dot_address: warning: localhost.localdomain -> 127.0.0.1. Check your system network configuration!
999999: mpt_get_dot_address: warning: localhost.localdomain -> 127.0.0.1. Check your system network configuration!/ansys_inc/v252/fluent/fluent25.2.0/bin/fluent -r25.2.0 3ddp -flux -node -t8 -pdefault -mpi=intel -ssh -mport 127.0.0.1:127.0.0.1:35977:0
Starting /ansys_inc/v252/fluent/fluent25.2.0/multiport/mpi/lnamd64/intel/bin/mpirun -f /tmp/fluent-appfile.aoki.380913 -genv I_MPI_FABRICS shm -genv FLUENT_ARCH lnamd64 -genv I_MPI_DEBUG 0 -genv I_MPI_ADJUST_GATHERV 3 -genv I_MPI_ADJUST_ALLREDUCE 2 -genv I_MPI_PLATFORM auto -genv PYTHONHOME /ansys_inc/v252/fluent/fluent25.2.0/../../commonfiles/CPython/3_10/linx64/Release/python -genv FLUENT_PROD_DIR /ansys_inc/v252/fluent/fluent25.2.0 -genv FLUENT_AFFINITY 0 -genv I_MPI_PIN enable -genv KMP_AFFINITY disabled -n 8 /ansys_inc/v252/fluent/fluent25.2.0/lnamd64/3ddp_node/fluent_mpi.25.2.0 node -mpiw intel -pic shmem -mport 127.0.0.1:127.0.0.1:35977:0

0: mpt_get_dot_address: warning: localhost.localdomain -> 127.0.0.1. Check your system network configuration!
4: mpt_get_dot_address: warning: localhost.localdomain -> 127.0.0.1. Check your system network configuration!
5: mpt_get_dot_address: warning: localhost.localdomain -> 127.0.0.1. Check your system network configuration!
6: mpt_get_dot_address: warning: localhost.localdomain -> 127.0.0.1. Check your system network configuration!
7: mpt_get_dot_address: warning: localhost.localdomain -> 127.0.0.1. Check your system network configuration!
1: mpt_get_dot_address: warning: localhost.localdomain -> 127.0.0.1. Check your system network configuration!
2: mpt_get_dot_address: warning: localhost.localdomain -> 127.0.0.1. Check your system network configuration!
3: mpt_get_dot_address: warning: localhost.localdomain -> 127.0.0.1. Check your system network configuration!
-----------------------------------------------------------------------------------
ID    Hostname              Core   O.S.      PID            Vendor                
-----------------------------------------------------------------------------------
n0-7  localhost.localdomai  8/128  Linux-64  380983-380990  AMD EPYC 9354 32-Core 
host  localhost.localdomai         Linux-64  380424         AMD EPYC 9354 32-Core 

MPI Option Selected: intel
Selected system interconnect: shared-memory
-----------------------------------------------------------------------------------


999999: mpt_get_dot_address: warning: localhost.localdomain -> 127.0.0.1. Check your system network configuration!
0: mpt_get_dot_address: warning: localhost.localdomain -> 127.0.0.1. Check your system network configuration!
1: mpt_get_dot_address: warning: localhost.localdomain -> 127.0.0.1. Check your system network configuration!
2: mpt_get_dot_address: warning: localhost.localdomain -> 127.0.0.1. Check your system network configuration!
3: mpt_get_dot_address: warning: localhost.localdomain -> 127.0.0.1. Check your system network configuration!
4: mpt_get_dot_address: warning: localhost.localdomain -> 127.0.0.1. Check your system network configuration!
5: mpt_get_dot_address: warning: localhost.localdomain -> 127.0.0.1. Check your system network configuration!
6: mpt_get_dot_address: warning: localhost.localdomain -> 127.0.0.1. Check your system network configuration!
7: mpt_get_dot_address: warning: localhost.localdomain -> 127.0.0.1. Check your system network configuration!Cleanup script file is /home/aoki/Downloads/pintle_injector/cleanup-fluent-localhost.localdomain-380424.sh

Posting ANSYS Product Improvement Program startup data
Done.
Information: The server has started and is running.
>>> WARNING: Rank:0 Machine localhost.localdomain has 19 % of RAM filled with file buffer caches.
This can cause potential performance issues. Please use -cflush flag to flush the cache. 


Reading "/home/aoki/Downloads/pintle_injector/pintle_injector.msh"...

Buffering for file scan...


Building...
     mesh
==============================================================================

Node 6: Process 380989: Received signal SIGSEGV.

==============================================================================

==============================================================================

Node 4: Process 380987: Received signal SIGSEGV.

==============================================================================

==============================================================================

Node 5: Process 380988: Received signal SIGSEGV.

==============================================================================

==============================================================================

==============================================================================

Node 7: Process 380990: Received signal SIGSEGV.

==============================================================================

Node 2: Process 380985: Received signal SIGSEGV.

==============================================================================

==============================================================================

Node 3: Process 380986: Received signal SIGSEGV.

==============================================================================

==============================================================================

Node 1: Process 380984: Received signal SIGSEGV.

==============================================================================

==============================================================================

Node 0: Process 380983: Received signal SIGSEGV.

==============================================================================

===============Message from the Cortex Process================================

Fatal error in one of the compute processes.

==============================================================================
Fatal failure in fluent (disconnected / ended abnormally) - exiting...
/ansys_inc/v252/fluent/fluent25.2.0/bin/fluent -r25.2.0 3ddp -py -t8 -g -driver null -sifile=/tmp/serverinfo-akrfd8t_.txt -nm
/ansys_inc/v252/fluent/fluent25.2.0/cortex/lnamd64/cortex.25.2.0 -f fluent -py -g -sifile=/tmp/serverinfo-akrfd8t_.txt -nm (fluent "3ddp -pdefault  -host -r25.2.0 -t8 -mpi=intel -path/ansys_inc/v252/fluent -ssh")

Opening input/output transcript to file "/home/aoki/Downloads/pintle_injector/fluent-20260323-145948-388620.trn".
Auto-Transcript Start Time:  14:59:48, 23 Mar 2026 
/ansys_inc/v252/fluent/fluent25.2.0/bin/fluent -r25.2.0 3ddp -pdefault -host -t8 -mpi=intel -path/ansys_inc/v252/fluent -ssh -cx localhost:45299:37273
Starting /ansys_inc/v252/fluent/fluent25.2.0/lnamd64/3ddp_host/fluent.25.2.0 host -cx localhost:45299:37273 "(list (rpsetvar (QUOTE parallel/function) "fluent 3ddp -flux -node -r25.2.0 -t8 -pdefault -mpi=intel -ssh") (rpsetvar (QUOTE parallel/rhost) "") (rpsetvar (QUOTE parallel/ruser) "") (rpsetvar (QUOTE parallel/nprocs_string) "8") (rpsetvar (QUOTE parallel/auto-spawn?) #t) (rpsetvar (QUOTE parallel/trace-level) 0) (rpsetvar (QUOTE parallel/remote-shell) 1) (rpsetvar (QUOTE parallel/path) "/ansys_inc/v252/fluent") (rpsetvar (QUOTE parallel/hostsfile) "") (rpsetvar (QUOTE gpuapp/devices) ""))"

              Welcome to ANSYS Fluent 25.2.0

              Copyright 1987-2025 ANSYS, Inc. All Rights Reserved.
              Unauthorized use, distribution or duplication is prohibited.
              This product is subject to U.S. laws governing export and re-export.
              For full Legal Notice, see documentation.

Build Time: Jun 16 2025 09:42:18 EDT  Build Id: 10204  
 
Connected License Server List:	1055@localhost

     --------------------------------------------------------------
     This is an academic version of ANSYS FLUENT. Usage of this product
     license is limited to the terms and conditions specified in your ANSYS
     license form, additional terms section.
     --------------------------------------------------------------
Host spawning Node 0 on machine "localhost.localdomain" (unix).

999999: mpt_get_dot_address: warning: localhost.localdomain -> 127.0.0.1. Check your system network configuration!
999999: mpt_get_dot_address: warning: localhost.localdomain -> 127.0.0.1. Check your system network configuration!/ansys_inc/v252/fluent/fluent25.2.0/bin/fluent -r25.2.0 3ddp -flux -node -t8 -pdefault -mpi=intel -ssh -mport 127.0.0.1:127.0.0.1:44865:0
Starting /ansys_inc/v252/fluent/fluent25.2.0/multiport/mpi/lnamd64/intel/bin/mpirun -f /tmp/fluent-appfile.aoki.389173 -genv I_MPI_FABRICS shm -genv FLUENT_ARCH lnamd64 -genv I_MPI_DEBUG 0 -genv I_MPI_ADJUST_GATHERV 3 -genv I_MPI_ADJUST_ALLREDUCE 2 -genv I_MPI_PLATFORM auto -genv PYTHONHOME /ansys_inc/v252/fluent/fluent25.2.0/../../commonfiles/CPython/3_10/linx64/Release/python -genv FLUENT_PROD_DIR /ansys_inc/v252/fluent/fluent25.2.0 -genv FLUENT_AFFINITY 0 -genv I_MPI_PIN enable -genv KMP_AFFINITY disabled -n 8 /ansys_inc/v252/fluent/fluent25.2.0/lnamd64/3ddp_node/fluent_mpi.25.2.0 node -mpiw intel -pic shmem -mport 127.0.0.1:127.0.0.1:44865:0

0: mpt_get_dot_address: warning: localhost.localdomain -> 127.0.0.1. Check your system network configuration!
1: mpt_get_dot_address: warning: localhost.localdomain -> 127.0.0.1. Check your system network configuration!
2: mpt_get_dot_address: warning: localhost.localdomain -> 127.0.0.1. Check your system network configuration!
3: mpt_get_dot_address: warning: localhost.localdomain -> 127.0.0.1. Check your system network configuration!
4: mpt_get_dot_address: warning: localhost.localdomain -> 127.0.0.1. Check your system network configuration!
5: mpt_get_dot_address: warning: localhost.localdomain -> 127.0.0.1. Check your system network configuration!
6: mpt_get_dot_address: warning: localhost.localdomain -> 127.0.0.1. Check your system network configuration!
7: mpt_get_dot_address: warning: localhost.localdomain -> 127.0.0.1. Check your system network configuration!
-----------------------------------------------------------------------------------
ID    Hostname              Core   O.S.      PID            Vendor                
-----------------------------------------------------------------------------------
n0-7  localhost.localdomai  8/128  Linux-64  389243-389250  AMD EPYC 9354 32-Core 
host  localhost.localdomai         Linux-64  388826         AMD EPYC 9354 32-Core 

MPI Option Selected: intel
Selected system interconnect: shared-memory
-----------------------------------------------------------------------------------


999999: mpt_get_dot_address: warning: localhost.localdomain -> 127.0.0.1. Check your system network configuration!
0: mpt_get_dot_address: warning: localhost.localdomain -> 127.0.0.1. Check your system network configuration!
4: mpt_get_dot_address: warning: localhost.localdomain -> 127.0.0.1. Check your system network configuration!
5: mpt_get_dot_address: warning: localhost.localdomain -> 127.0.0.1. Check your system network configuration!
6: mpt_get_dot_address: warning: localhost.localdomain -> 127.0.0.1. Check your system network configuration!
7: mpt_get_dot_address: warning: localhost.localdomain -> 127.0.0.1. Check your system network configuration!
1: mpt_get_dot_address: warning: localhost.localdomain -> 127.0.0.1. Check your system network configuration!
2: mpt_get_dot_address: warning: localhost.localdomain -> 127.0.0.1. Check your system network configuration!
3: mpt_get_dot_address: warning: localhost.localdomain -> 127.0.0.1. Check your system network configuration!Cleanup script file is /home/aoki/Downloads/pintle_injector/cleanup-fluent-localhost.localdomain-388826.sh

Posting ANSYS Product Improvement Program startup data
Done.
Information: The server has started and is running.
>>> WARNING: Rank:0 Machine localhost.localdomain has 19 % of RAM filled with file buffer caches.
[...]

Error: Value is not allowed
Error Object: ("facet-average" is_not_in ("surface-area" "surface-areaavg" "surface-vectbasedflux" "surface-vectflux" "surface-vectwtavg" "surface-facetavg" "surface-facetmax" "surface-facetmin" "surface-flowrate" "surface-integral" "surface-massflowrate" "surface-massavg" "surface-stddev" "surface-sum" "surface-areawtui" "surface-masswtui" "surface-vertexavg" "surface-vertexmax" "surface-vertexmin" "surface-volumeflowrate"))

Posting ANSYS Product Improvement Program performance data 
Done.
Shutting down Server...
Services Shutdown...Done.
Server Shutdown...Done.
Queue Cleared...Done.
Shutdown Complete.
Auto-Transcript Stop Time:  10:41:05, 24 Mar 2026 
Total Transcript Time: 0 Minute 22 Second.

Automatic transcript closed.
/ansys_inc/v252/fluent/fluent25.2.0/bin/fluent -r25.2.0 2ddp -py -t4 -g -driver null -sifile=/tmp/serverinfo-oumtyh4n.txt -nm
/ansys_inc/v252/fluent/fluent25.2.0/cortex/lnamd64/cortex.25.2.0 -f fluent -py -g -sifile=/tmp/serverinfo-oumtyh4n.txt -nm (fluent "2ddp -pdefault  -host -r25.2.0 -t4 -mpi=intel -path/ansys_inc/v252/fluent -ssh")

Opening input/output transcript to file "/home/aoki/Downloads/pintle_injector/fluent-20260324-104144-843801.trn".
Auto-Transcript Start Time:  10:41:44, 24 Mar 2026 
/ansys_inc/v252/fluent/fluent25.2.0/bin/fluent -r25.2.0 2ddp -pdefault -host -t4 -mpi=intel -path/ansys_inc/v252/fluent -ssh -cx localhost:39879:42185
Starting /ansys_inc/v252/fluent/fluent25.2.0/lnamd64/2ddp_host/fluent.25.2.0 host -cx localhost:39879:42185 "(list (rpsetvar (QUOTE parallel/function) "fluent 2ddp -flux -node -r25.2.0 -t4 -pdefault -mpi=intel -ssh") (rpsetvar (QUOTE parallel/rhost) "") (rpsetvar (QUOTE parallel/ruser) "") (rpsetvar (QUOTE parallel/nprocs_string) "4") (rpsetvar (QUOTE parallel/auto-spawn?) #t) (rpsetvar (QUOTE parallel/trace-level) 0) (rpsetvar (QUOTE parallel/remote-shell) 1) (rpsetvar (QUOTE parallel/path) "/ansys_inc/v252/fluent") (rpsetvar (QUOTE parallel/hostsfile) "") (rpsetvar (QUOTE gpuapp/devices) ""))"

              Welcome to ANSYS Fluent 25.2.0

              Copyright 1987-2025 ANSYS, Inc. All Rights Reserved.
              Unauthorized use, distribution or duplication is prohibited.
              This product is subject to U.S. laws governing export and re-export.
              For full Legal Notice, see documentation.

Build Time: Jun 16 2025 09:42:17 EDT  Build Id: 10204  
 
Connected License Server List:	1055@localhost

     --------------------------------------------------------------
     This is an academic version of ANSYS FLUENT. Usage of this product
     license is limited to the terms and conditions specified in your ANSYS
     license form, additional terms section.
     --------------------------------------------------------------
Host spawning Node 0 on machine "localhost.localdomain" (unix).

999999: mpt_get_dot_address: warning: localhost.localdomain -> 127.0.0.1. Check your system network configuration!
999999: mpt_get_dot_address: warning: localhost.localdomain -> 127.0.0.1. Check your system network configuration!/ansys_inc/v252/fluent/fluent25.2.0/bin/fluent -r25.2.0 2ddp -flux -node -t4 -pdefault -mpi=intel -ssh -mport 127.0.0.1:127.0.0.1:36189:0
Starting /ansys_inc/v252/fluent/fluent25.2.0/multiport/mpi/lnamd64/intel/bin/mpirun -f /tmp/fluent-appfile.aoki.844515 -genv I_MPI_FABRICS shm -genv FLUENT_ARCH lnamd64 -genv I_MPI_DEBUG 0 -genv I_MPI_ADJUST_GATHERV 3 -genv I_MPI_ADJUST_ALLREDUCE 2 -genv I_MPI_PLATFORM auto -genv PYTHONHOME /ansys_inc/v252/fluent/fluent25.2.0/../../commonfiles/CPython/3_10/linx64/Release/python -genv FLUENT_PROD_DIR /ansys_inc/v252/fluent/fluent25.2.0 -genv FLUENT_AFFINITY 0 -genv I_MPI_PIN enable -genv KMP_AFFINITY disabled -n 4 /ansys_inc/v252/fluent/fluent25.2.0/lnamd64/2ddp_node/fluent_mpi.25.2.0 node -mpiw intel -pic shmem -mport 127.0.0.1:127.0.0.1:36189:0

0: mpt_get_dot_address: warning: localhost.localdomain -> 127.0.0.1. Check your system network configuration!
1: mpt_get_dot_address: warning: localhost.localdomain -> 127.0.0.1. Check your system network configuration!
2: mpt_get_dot_address: warning: localhost.localdomain -> 127.0.0.1. Check your system network configuration!
3: mpt_get_dot_address: warning: localhost.localdomain -> 127.0.0.1. Check your system network configuration!
-----------------------------------------------------------------------------------
ID    Hostname              Core   O.S.      PID            Vendor                
-----------------------------------------------------------------------------------
n0-3  localhost.localdomai  4/128  Linux-64  844585-844588  AMD EPYC 9354 32-Core 
host  localhost.localdomai         Linux-64  844161         AMD EPYC 9354 32-Core 

MPI Option Selected: intel
Selected system interconnect: shared-memory
-----------------------------------------------------------------------------------


999999: mpt_get_dot_address: warning: localhost.localdomain -> 127.0.0.1. Check your system network configuration!
0: mpt_get_dot_address: warning: localhost.localdomain -> 127.0.0.1. Check your system network configuration!
3: mpt_get_dot_address: warning: localhost.localdomain -> 127.0.0.1. Check your system network configuration!
1: mpt_get_dot_address: warning: localhost.localdomain -> 127.0.0.1. Check your system network configuration!
2: mpt_get_dot_address: warning: localhost.localdomain -> 127.0.0.1. Check your system network configuration!Cleanup script file is /home/aoki/Downloads/pintle_injector/cleanup-fluent-localhost.localdomain-844161.sh

Posting ANSYS Product Improvement Program startup data
Done.
Information: The server has started and is running.
>>> Fast-loading "/ansys_inc/v252/fluent/fluent25.2.0/addons/afd/lib/hdfio.bin"
Done.
WARNING: Rank:0 Machine localhost.localdomain has 19 % of RAM filled with file buffer caches.
This can cause potential performance issues. Please use -cflush flag to flush the cache. 


Reading from localhost.localdomain:"/home/aoki/Downloads/pintle_injector/output/pintle_injector.cas.h5" in NODE0 mode ...
  Reading mesh ...
      229674 cells,     3 cell zones ...
          11576 triangular cells,  zone id: 1
           3596 triangular cells,  zone id: 2
         214502 triangular cells,  zone id: 3
      345626 faces,    16 face zones ...
          17201 2D interior faces,  zone id: 4
            100 2D axis faces,  zone id: 5
            150 2D wall faces,  zone id: 6
             35 2D mass-flow-inlet faces,  zone id: 7
             41 2D interior faces,  zone id: 8
           5234 2D interior faces,  zone id: 9
            150 2D wall faces,  zone id: 10
            150 2D wall faces,  zone id: 11
             10 2D mass-flow-inlet faces,  zone id: 12
             10 2D interior faces,  zone id: 13
         320910 2D interior faces,  zone id: 14
            101 2D pressure-outlet faces,  zone id: 15
            344 2D axis faces,  zone id: 16
           1000 2D wall faces,  zone id: 17
            165 2D wall faces,  zone id: 18
             25 2D wall faces,  zone id: 19
      115953 nodes,     1 node zone  ...
Warning: reading 8 partition grid onto 4 compute node machine.
         Combining every 2 partitions.
  Done.


Building...
     mesh
	distributing mesh
		parts....,
		faces....,
		nodes....,
		cells....,
        bandwidth reduction using Reverse Cuthill-McKee: 57088/178 = 320.719
     materials,
     interface,
     domains,
	mixture
     zones,
	wall_pintle_tip
	wall_chamber_step
	wall_chamber_main
	default_interior-13
	interface-13-12
	wall_pintle_body
	wall_slit
	default_interior-12
	interface-13-11
	wall_pintle_top
	default_interior-11
	lox_inlet
	rp1_inlet
	chamber_outlet
	axis_lox
	axis_chamber
	3_s_3
	3_s_2
	3_s_1
     parallel,
Done.

Reading from localhost.localdomain:"/home/aoki/Downloads/pintle_injector/output/pintle_injector.dat.h5" in NODE0 mode ...


  Reading results.
Parallel variables...
Done.

Error: Value is not allowed
Error Object: ("mean-mixture-fraction" is_not_in ("pressure" "pressure-coefficient" "dynamic-pressure" "absolute-pressure" "total-pressure" "rel-total-pressure" "density" "density-all" "velocity-magnitude" "axial-velocity" "radial-velocity" "stream-function" "rel-velocity-magnitude" "relative-axial-velocity" "relative-radial-velocity" "mesh-x-velocity" "mesh-y-velocity" "velocity-angle" "vorticity-mag" "cell-reynolds-number" "cell-convective-courant-number" "q-criterion" "raw-q-criterion" "lambda2-criterion" "temperature" "total-temperature" "enthalpy" "rel-total-temperature" "rothalpy" "wall-temperature" "wall-adjacent-temperature" "reference-temperature-at-y+" "wall-temp-thin" "total-enthalpy" "rel-total-enthalpy" "total-enthalpy-deviation" "entropy" "total-energy" "internal-energy" "turb-kinetic-energy" "turb-intensity" "turb-diss-rate" "production-of-k" "viscosity-turb" "viscosity-eff" "viscosity-ratio" "thermal-conductivity-eff" "prandtl-number-eff" "y-star" "y-plus" "turb-reynolds-number-rey" "viscosity-lam" "thermal-conductivity-lam" "specific-heat-cp" "prandtl-number-lam" "wall-shear" "axial-wall-shear" "radial-wall-shear" "skin-friction-coef" "heat-flux" "heat-transfer-coef" "heat-transfer-coef-wall-adj" "heat-transfer-coef-yplus" "heat-transfer-coef-wall" "nusselt-number" "stanton-number" "cell-partition-active" "cell-partition-stored" "cell-id" "cell-element-type" "cell-type" "cell-zone" "partition-neighbors" "cell-weight" "x-coordinate" "y-coordinate" "axial-coordinate" "radial-coordinate" "face-area-magnitude" "x-face-area" "y-face-area" "cell-volume" "cell-volume-2d" "orthogonal-quality" "cell-equiangle-skew" "cell-equivolume-skew" "face-handedness" "mark-poor-elements" "interface-overlap-fraction" "cell-wall-distance" "aspect-ratio" "cell-refine-level" "smoothed-cell-refine-level" "cell-parent-index" "anisotropic-adaption-cells" "boundary-layer-cells" "boundary-cell-dist" "boundary-normal-dist" "boundary-volume-dist" "cell-volume-change" "mass-imbalance" "strain-rate-mag" "daxial-velocity-dx" "dradial-velocity-dx" "daxial-velocity-dy" "dradial-velocity-dy" "dp-dx" "dp-dy" "pressure-hessian-indicator" "wall-temperature" "wall-temp-thin"))

Error: Value is not allowed
Error Object: ("mean-mixture-fraction" is_not_in ("pressure" "pressure-coefficient" "dynamic-pressure" "absolute-pressure" "total-pressure" "rel-total-pressure" "density" "density-all" "velocity-magnitude" "axial-velocity" "radial-velocity" "stream-function" "rel-velocity-magnitude" "relative-axial-velocity" "relative-radial-velocity" "mesh-x-velocity" "mesh-y-velocity" "velocity-angle" "vorticity-mag" "cell-reynolds-number" "cell-convective-courant-number" "q-criterion" "raw-q-criterion" "lambda2-criterion" "temperature" "total-temperature" "enthalpy" "rel-total-temperature" "rothalpy" "wall-temperature" "wall-adjacent-temperature" "reference-temperature-at-y+" "wall-temp-thin" "total-enthalpy" "rel-total-enthalpy" "total-enthalpy-deviation" "entropy" "total-energy" "internal-energy" "turb-kinetic-energy" "turb-intensity" "turb-diss-rate" "production-of-k" "viscosity-turb" "viscosity-eff" "viscosity-ratio" "thermal-conductivity-eff" "prandtl-number-eff" "y-star" "y-plus" "turb-reynolds-number-rey" "viscosity-lam" "thermal-conductivity-lam" "specific-heat-cp" "prandtl-number-lam" "wall-shear" "axial-wall-shear" "radial-wall-shear" "skin-friction-coef" "heat-flux" "heat-transfer-coef" "heat-transfer-coef-wall-adj" "heat-transfer-coef-yplus" "heat-transfer-coef-wall" "nusselt-number" "stanton-number" "cell-partition-active" "cell-partition-stored" "cell-id" "cell-element-type" "cell-type" "cell-zone" "partition-neighbors" "cell-weight" "x-coordinate" "y-coordinate" "axial-coordinate" "radial-coordinate" "face-area-magnitude" "x-face-area" "y-face-area" "cell-volume" "cell-volume-2d" "orthogonal-quality" "cell-equiangle-skew" "cell-equivolume-skew" "face-handedness" "mark-poor-elements" "interface-overlap-fraction" "cell-wall-distance" "aspect-ratio" "cell-refine-level" "smoothed-cell-refine-level" "cell-parent-index" "anisotropic-adaption-cells" "boundary-layer-cells" "boundary-cell-dist" "boundary-normal-dist" "boundary-volume-dist" "cell-volume-change" "mass-imbalance" "strain-rate-mag" "daxial-velocity-dx" "dradial-velocity-dx" "daxial-velocity-dy" "dradial-velocity-dy" "dp-dx" "dp-dy" "pressure-hessian-indicator" "wall-temperature" "wall-temp-thin"))

Error: Value is not allowed
Error Object: ("mean-mixture-fraction" is_not_in ("pressure" "pressure-coefficient" "dynamic-pressure" "absolute-pressure" "total-pressure" "rel-total-pressure" "density" "density-all" "velocity-magnitude" "axial-velocity" "radial-velocity" "stream-function" "rel-velocity-magnitude" "relative-axial-velocity" "relative-radial-velocity" "mesh-x-velocity" "mesh-y-velocity" "velocity-angle" "vorticity-mag" "cell-reynolds-number" "cell-convective-courant-number" "q-criterion" "raw-q-criterion" "lambda2-criterion" "temperature" "total-temperature" "enthalpy" "rel-total-temperature" "rothalpy" "wall-temperature" "wall-adjacent-temperature" "reference-temperature-at-y+" "wall-temp-thin" "total-enthalpy" "rel-total-enthalpy" "total-enthalpy-deviation" "entropy" "total-energy" "internal-energy" "turb-kinetic-energy" "turb-intensity" "turb-diss-rate" "production-of-k" "viscosity-turb" "viscosity-eff" "viscosity-ratio" "thermal-conductivity-eff" "prandtl-number-eff" "y-star" "y-plus" "turb-reynolds-number-rey" "viscosity-lam" "thermal-conductivity-lam" "specific-heat-cp" "prandtl-number-lam" "wall-shear" "axial-wall-shear" "radial-wall-shear" "skin-friction-coef" "heat-flux" "heat-transfer-coef" "heat-transfer-coef-wall-adj" "heat-transfer-coef-yplus" "heat-transfer-coef-wall" "nusselt-number" "stanton-number" "cell-partition-active" "cell-partition-stored" "cell-id" "cell-element-type" "cell-type" "cell-zone" "partition-neighbors" "cell-weight" "x-coordinate" "y-coordinate" "axial-coordinate" "radial-coordinate" "face-area-magnitude" "x-face-area" "y-face-area" "cell-volume" "cell-volume-2d" "orthogonal-quality" "cell-equiangle-skew" "cell-equivolume-skew" "face-handedness" "mark-poor-elements" "interface-overlap-fraction" "cell-wall-distance" "aspect-ratio" "cell-refine-level" "smoothed-cell-refine-level" "cell-parent-index" "anisotropic-adaption-cells" "boundary-layer-cells" "boundary-cell-dist" "boundary-normal-dist" "boundary-volume-dist" "cell-volume-change" "mass-imbalance" "strain-rate-mag" "daxial-velocity-dx" "dradial-velocity-dx" "daxial-velocity-dy" "dradial-velocity-dy" "dp-dx" "dp-dy" "pressure-hessian-indicator" "wall-temperature" "wall-temp-thin"))

Error: Value is not allowed
Error Object: ("mean-mixture-fraction" is_not_in ("pressure" "pressure-coefficient" "dynamic-pressure" "absolute-pressure" "total-pressure" "rel-total-pressure" "density" "density-all" "velocity-magnitude" "axial-velocity" "radial-velocity" "stream-function" "rel-velocity-magnitude" "relative-axial-velocity" "relative-radial-velocity" "mesh-x-velocity" "mesh-y-velocity" "velocity-angle" "vorticity-mag" "cell-reynolds-number" "cell-convective-courant-number" "q-criterion" "raw-q-criterion" "lambda2-criterion" "temperature" "total-temperature" "enthalpy" "rel-total-temperature" "rothalpy" "wall-temperature" "wall-adjacent-temperature" "reference-temperature-at-y+" "wall-temp-thin" "total-enthalpy" "rel-total-enthalpy" "total-enthalpy-deviation" "entropy" "total-energy" "internal-energy" "turb-kinetic-energy" "turb-intensity" "turb-diss-rate" "production-of-k" "viscosity-turb" "viscosity-eff" "viscosity-ratio" "thermal-conductivity-eff" "prandtl-number-eff" "y-star" "y-plus" "turb-reynolds-number-rey" "viscosity-lam" "thermal-conductivity-lam" "specific-heat-cp" "prandtl-number-lam" "wall-shear" "axial-wall-shear" "radial-wall-shear" "skin-friction-coef" "heat-flux" "heat-transfer-coef" "heat-transfer-coef-wall-adj" "heat-transfer-coef-yplus" "heat-transfer-coef-wall" "nusselt-number" "stanton-number" "cell-partition-active" "cell-partition-stored" "cell-id" "cell-element-type" "cell-type" "cell-zone" "partition-neighbors" "cell-weight" "x-coordinate" "y-coordinate" "axial-coordinate" "radial-coordinate" "face-area-magnitude" "x-face-area" "y-face-area" "cell-volume" "cell-volume-2d" "orthogonal-quality" "cell-equiangle-skew" "cell-equivolume-skew" "face-handedness" "mark-poor-elements" "interface-overlap-fraction" "cell-wall-distance" "aspect-ratio" "cell-refine-level" "smoothed-cell-refine-level" "cell-parent-index" "anisotropic-adaption-cells" "boundary-layer-cells" "boundary-cell-dist" "boundary-normal-dist" "boundary-volume-dist" "cell-volume-change" "mass-imbalance" "strain-rate-mag" "daxial-velocity-dx" "dradial-velocity-dx" "daxial-velocity-dy" "dradial-velocity-dy" "dp-dx" "dp-dy" "pressure-hessian-indicator" "wall-temperature" "wall-temp-thin"))

Error: Value is not allowed
Error Object: ("mean-mixture-fraction" is_not_in ("pressure" "pressure-coefficient" "dynamic-pressure" "absolute-pressure" "total-pressure" "rel-total-pressure" "density" "density-all" "velocity-magnitude" "axial-velocity" "radial-velocity" "stream-function" "rel-velocity-magnitude" "relative-axial-velocity" "relative-radial-velocity" "mesh-x-velocity" "mesh-y-velocity" "velocity-angle" "vorticity-mag" "cell-reynolds-number" "cell-convective-courant-number" "q-criterion" "raw-q-criterion" "lambda2-criterion" "temperature" "total-temperature" "enthalpy" "rel-total-temperature" "rothalpy" "wall-temperature" "wall-adjacent-temperature" "reference-temperature-at-y+" "wall-temp-thin" "total-enthalpy" "rel-total-enthalpy" "total-enthalpy-deviation" "entropy" "total-energy" "internal-energy" "turb-kinetic-energy" "turb-intensity" "turb-diss-rate" "production-of-k" "viscosity-turb" "viscosity-eff" "viscosity-ratio" "thermal-conductivity-eff" "prandtl-number-eff" "y-star" "y-plus" "turb-reynolds-number-rey" "viscosity-lam" "thermal-conductivity-lam" "specific-heat-cp" "prandtl-number-lam" "wall-shear" "axial-wall-shear" "radial-wall-shear" "skin-friction-coef" "heat-flux" "heat-transfer-coef" "heat-transfer-coef-wall-adj" "heat-transfer-coef-yplus" "heat-transfer-coef-wall" "nusselt-number" "stanton-number" "cell-partition-active" "cell-partition-stored" "cell-id" "cell-element-type" "cell-type" "cell-zone" "partition-neighbors" "cell-weight" "x-coordinate" "y-coordinate" "axial-coordinate" "radial-coordinate" "face-area-magnitude" "x-face-area" "y-face-area" "cell-volume" "cell-volume-2d" "orthogonal-quality" "cell-equiangle-skew" "cell-equivolume-skew" "face-handedness" "mark-poor-elements" "interface-overlap-fraction" "cell-wall-distance" "aspect-ratio" "cell-refine-level" "smoothed-cell-refine-level" "cell-parent-index" "anisotropic-adaption-cells" "boundary-layer-cells" "boundary-cell-dist" "boundary-normal-dist" "boundary-volume-dist" "cell-volume-change" "mass-imbalance" "strain-rate-mag" "daxial-velocity-dx" "dradial-velocity-dx" "daxial-velocity-dy" "dradial-velocity-dy" "dp-dx" "dp-dy" "pressure-hessian-indicator" "wall-temperature" "wall-temp-thin"))

Error: Value is not allowed
Error Object: ("facet-average" is_not_in ("surface-area" "surface-areaavg" "surface-vectbasedflux" "surface-vectflux" "surface-vectwtavg" "surface-facetavg" "surface-facetmax" "surface-facetmin" "surface-flowrate" "surface-integral" "surface-massflowrate" "surface-massavg" "surface-stddev" "surface-sum" "surface-areawtui" "surface-masswtui" "surface-vertexavg" "surface-vertexmax" "surface-vertexmin" "surface-volumeflowrate"))

Posting ANSYS Product Improvement Program performance data 
Done.
Shutting down Server...
Services Shutdown...Done.
Server Shutdown...Done.
Queue Cleared...Done.
Shutdown Complete.
Auto-Transcript Stop Time:  10:42:06, 24 Mar 2026 
Total Transcript Time: 0 Minute 22 Second.

Automatic transcript closed.
